*SPEF "ieee 1481-1999"
*DESIGN "fll_wrapper_2"
*DATE "11:11:11 Fri 11 11, 1111"
*VENDOR "OpenRCX"
*PROGRAM "Parallel Extraction"
*VERSION "1.0"
*DESIGN_FLOW "NAME_SCOPE LOCAL" "PIN_CAP NONE"
*DIVIDER /
*DELIMITER :
*BUS_DELIMITER []
*T_UNIT 1 NS
*C_UNIT 1 PF
*R_UNIT 1 OHM
*L_UNIT 1 HENRY

*NAME_MAP
*3 clk
*4 corner[0]
*5 corner[1]
*6 corner[2]
*7 lock
*8 lower[0]
*9 lower[1]
*10 lower[2]
*11 lower[3]
*12 lower[4]
*13 lower[5]
*14 lower[6]
*15 lower[7]
*16 lower[8]
*17 lower[9]
*18 pwm
*19 ref
*20 ref_time[0]
*21 ref_time[1]
*22 ref_time[2]
*23 ref_time[3]
*24 ref_time[4]
*25 ref_time[5]
*26 ref_time[6]
*27 ref_time[7]
*28 ref_time[8]
*29 ref_time[9]
*30 reset
*31 upper[0]
*32 upper[1]
*33 upper[2]
*34 upper[3]
*35 upper[4]
*36 upper[5]
*37 upper[6]
*38 upper[7]
*39 upper[8]
*40 upper[9]
*41 _000_
*42 _001_
*43 _002_
*44 _003_
*45 _004_
*46 _005_
*47 _006_
*48 _007_
*49 _008_
*50 _009_
*51 _010_
*52 _011_
*53 _012_
*54 _013_
*55 _014_
*56 _015_
*57 _016_
*58 _017_
*59 _018_
*60 _019_
*61 _020_
*62 _021_
*63 _022_
*64 _023_
*65 _024_
*66 _025_
*67 _026_
*68 _027_
*69 _028_
*70 _029_
*71 _030_
*72 _031_
*73 _032_
*74 _033_
*75 _034_
*76 _035_
*77 _036_
*78 _037_
*79 _038_
*80 _039_
*81 _040_
*82 _041_
*83 _042_
*84 _043_
*85 _044_
*86 _045_
*87 _046_
*88 _047_
*89 _048_
*90 _049_
*91 _050_
*92 _051_
*93 _052_
*94 _053_
*95 _054_
*96 _055_
*97 _056_
*98 _057_
*99 _058_
*100 _059_
*101 _060_
*102 _061_
*103 _062_
*104 _063_
*105 _064_
*106 _065_
*107 _066_
*108 _067_
*109 _068_
*110 _069_
*111 _070_
*112 _071_
*113 _072_
*114 _073_
*115 _074_
*116 _075_
*117 _076_
*118 _077_
*119 _078_
*120 _079_
*121 _080_
*122 _081_
*123 _082_
*124 _083_
*125 _084_
*126 _085_
*127 _086_
*128 _087_
*129 _088_
*130 _089_
*131 _090_
*132 _091_
*133 _092_
*134 _093_
*135 _094_
*136 _095_
*137 _096_
*138 _097_
*139 _098_
*140 _099_
*141 _100_
*142 _101_
*143 _102_
*144 _103_
*145 _104_
*146 _105_
*147 _106_
*148 _107_
*149 _108_
*150 _109_
*151 _110_
*152 _111_
*153 _112_
*154 _113_
*155 _114_
*156 _115_
*157 _116_
*158 _117_
*159 _118_
*160 _119_
*161 _120_
*162 _121_
*163 _122_
*164 _123_
*165 _124_
*166 _125_
*167 _126_
*168 _127_
*169 _128_
*170 _129_
*171 _130_
*172 _131_
*173 _132_
*174 _133_
*175 _134_
*176 _135_
*177 _136_
*178 _137_
*179 _138_
*180 _139_
*181 _140_
*182 _141_
*183 _142_
*184 _143_
*185 _144_
*186 _145_
*187 _146_
*188 _147_
*189 _148_
*190 _149_
*191 _150_
*192 _151_
*193 _152_
*194 _153_
*195 _154_
*196 _155_
*197 _156_
*198 _157_
*199 _158_
*200 _159_
*201 _160_
*202 _161_
*203 _162_
*204 _163_
*205 _164_
*206 _165_
*207 _166_
*208 _167_
*209 _168_
*210 _169_
*211 _170_
*212 _171_
*213 _172_
*214 _173_
*215 _174_
*216 _175_
*217 _176_
*218 _177_
*219 _178_
*220 _179_
*221 _180_
*222 _181_
*223 _182_
*224 _183_
*225 _184_
*226 _185_
*227 _186_
*228 _187_
*229 _188_
*230 _189_
*231 _190_
*232 _191_
*233 _192_
*234 _193_
*235 _194_
*236 _195_
*237 _196_
*238 _197_
*239 _198_
*240 _199_
*241 _200_
*242 _201_
*243 _202_
*244 _203_
*245 _204_
*246 _205_
*247 _206_
*248 _207_
*249 _208_
*250 _209_
*251 _210_
*252 _211_
*253 _212_
*254 _213_
*255 _214_
*256 _215_
*257 _216_
*258 _217_
*259 _218_
*260 _219_
*261 _220_
*262 _221_
*263 _222_
*264 _223_
*265 _224_
*266 _225_
*267 _226_
*268 _227_
*269 _228_
*270 _229_
*271 _230_
*272 _231_
*273 _232_
*274 _233_
*275 _234_
*276 _235_
*277 _236_
*278 _237_
*279 _238_
*280 _239_
*281 _240_
*282 _241_
*283 _242_
*284 _243_
*285 _244_
*286 _245_
*287 _246_
*288 _247_
*289 _248_
*290 _249_
*291 _250_
*292 _251_
*293 _252_
*294 _253_
*295 _254_
*296 _255_
*297 _256_
*298 _257_
*299 _258_
*300 _259_
*301 _260_
*302 _261_
*303 _262_
*304 _263_
*305 _264_
*306 _265_
*307 _266_
*308 _267_
*309 _268_
*310 _269_
*311 _270_
*312 _271_
*313 _272_
*314 _273_
*315 _274_
*316 _275_
*317 _276_
*318 _277_
*319 _278_
*320 _279_
*321 _280_
*322 _281_
*323 _282_
*324 _283_
*325 _284_
*326 _285_
*327 _286_
*328 _287_
*329 _288_
*330 _289_
*331 _290_
*332 _291_
*333 _292_
*334 _293_
*335 clknet_0_clk
*336 clknet_1_0_0_clk
*337 clknet_1_1_0_clk
*338 fll_core\.counter1\.count\[0\]
*339 fll_core\.counter1\.count\[1\]
*340 fll_core\.counter1\.count\[2\]
*341 fll_core\.counter1\.count\[3\]
*342 fll_core\.counter1\.count\[4\]
*343 fll_core\.counter1\.count\[5\]
*344 fll_core\.counter1\.count\[6\]
*345 fll_core\.counter1\.count\[7\]
*346 fll_core\.counter1\.count\[8\]
*347 fll_core\.counter1\.count\[9\]
*348 fll_core\.counter2\.count\[0\]
*349 fll_core\.counter2\.count\[1\]
*350 fll_core\.counter2\.count\[2\]
*351 fll_core\.counter2\.count\[3\]
*352 fll_core\.counter2\.count\[4\]
*353 fll_core\.counter2\.count\[5\]
*354 fll_core\.counter2\.count\[6\]
*355 fll_core\.counter2\.count\[7\]
*356 fll_core\.counter2\.count\[8\]
*357 fll_core\.counter2\.count\[9\]
*358 fll_core\.counter_reset
*359 fll_core\.strobe
*360 fll_core\.tmp\[0\]
*361 fll_core\.tmp\[1\]
*362 fll_core\.tmp\[2\]
*363 fll_core\.tmp\[3\]
*364 fll_core\.tmp\[4\]
*365 fll_core\.tmp\[5\]
*366 fll_core\.tmp\[6\]
*367 fll_core\.tmp\[7\]
*368 fll_core\.tmp\[8\]
*369 fll_core\.tmp\[9\]
*370 net1
*371 net10
*372 net11
*373 net12
*374 net13
*375 net14
*376 net15
*377 net16
*378 net17
*379 net18
*380 net19
*381 net2
*382 net20
*383 net21
*384 net22
*385 net23
*386 net24
*387 net25
*388 net26
*389 net27
*390 net28
*391 net29
*392 net3
*393 net30
*394 net31
*395 net32
*396 net33
*397 net34
*398 net35
*399 net36
*400 net37
*401 net4
*402 net5
*403 net6
*404 net7
*405 net8
*406 net9
*407 pwm_module\.count\[0\]
*408 pwm_module\.count\[1\]
*409 pwm_module\.count\[2\]
*410 pwm_module\.count\[3\]
*411 pwm_module\.count\[4\]
*412 pwm_module\.count\[5\]
*413 pwm_module\.count\[6\]
*414 pwm_module\.count\[7\]
*415 pwm_module\.count\[8\]
*416 pwm_module\.count\[9\]
*417 register\.tmp\[0\]
*418 register\.tmp\[1\]
*419 register\.tmp\[2\]
*420 register\.tmp\[3\]
*421 register\.tmp\[4\]
*422 register\.tmp\[5\]
*423 register\.tmp\[6\]
*424 register\.tmp\[7\]
*425 register\.tmp\[8\]
*426 register\.tmp\[9\]
*427 FILLER_0_102
*428 FILLER_0_110
*429 FILLER_0_116
*430 FILLER_0_126
*431 FILLER_0_13
*432 FILLER_0_138
*433 FILLER_0_141
*434 FILLER_0_146
*435 FILLER_0_158
*436 FILLER_0_166
*437 FILLER_0_169
*438 FILLER_0_179
*439 FILLER_0_24
*440 FILLER_0_29
*441 FILLER_0_38
*442 FILLER_0_45
*443 FILLER_0_52
*444 FILLER_0_6
*445 FILLER_0_64
*446 FILLER_0_77
*447 FILLER_0_83
*448 FILLER_0_95
*449 FILLER_10_116
*450 FILLER_10_128
*451 FILLER_10_132
*452 FILLER_10_136
*453 FILLER_10_141
*454 FILLER_10_149
*455 FILLER_10_177
*456 FILLER_10_19
*457 FILLER_10_27
*458 FILLER_10_36
*459 FILLER_10_42
*460 FILLER_10_49
*461 FILLER_10_60
*462 FILLER_10_67
*463 FILLER_10_76
*464 FILLER_10_88
*465 FILLER_11_104
*466 FILLER_11_113
*467 FILLER_11_117
*468 FILLER_11_130
*469 FILLER_11_142
*470 FILLER_11_155
*471 FILLER_11_163
*472 FILLER_11_167
*473 FILLER_11_179
*474 FILLER_11_18
*475 FILLER_11_26
*476 FILLER_11_3
*477 FILLER_11_35
*478 FILLER_11_43
*479 FILLER_11_52
*480 FILLER_11_62
*481 FILLER_11_75
*482 FILLER_12_121
*483 FILLER_12_125
*484 FILLER_12_129
*485 FILLER_12_13
*486 FILLER_12_136
*487 FILLER_12_150
*488 FILLER_12_176
*489 FILLER_12_182
*490 FILLER_12_24
*491 FILLER_12_38
*492 FILLER_12_47
*493 FILLER_12_59
*494 FILLER_12_67
*495 FILLER_12_80
*496 FILLER_12_88
*497 FILLER_12_95
*498 FILLER_13_102
*499 FILLER_13_108
*500 FILLER_13_113
*501 FILLER_13_135
*502 FILLER_13_147
*503 FILLER_13_153
*504 FILLER_13_159
*505 FILLER_13_167
*506 FILLER_13_173
*507 FILLER_13_181
*508 FILLER_13_26
*509 FILLER_13_3
*510 FILLER_13_39
*511 FILLER_13_52
*512 FILLER_13_65
*513 FILLER_13_76
*514 FILLER_13_83
*515 FILLER_13_94
*516 FILLER_14_106
*517 FILLER_14_114
*518 FILLER_14_136
*519 FILLER_14_150
*520 FILLER_14_158
*521 FILLER_14_179
*522 FILLER_14_24
*523 FILLER_14_32
*524 FILLER_14_42
*525 FILLER_14_52
*526 FILLER_14_60
*527 FILLER_14_67
*528 FILLER_14_80
*529 FILLER_15_102
*530 FILLER_15_110
*531 FILLER_15_133
*532 FILLER_15_141
*533 FILLER_15_15
*534 FILLER_15_153
*535 FILLER_15_162
*536 FILLER_15_179
*537 FILLER_15_22
*538 FILLER_15_3
*539 FILLER_15_31
*540 FILLER_15_41
*541 FILLER_15_52
*542 FILLER_15_60
*543 FILLER_15_73
*544 FILLER_15_8
*545 FILLER_15_82
*546 FILLER_15_86
*547 FILLER_15_94
*548 FILLER_16_115
*549 FILLER_16_122
*550 FILLER_16_129
*551 FILLER_16_13
*552 FILLER_16_136
*553 FILLER_16_141
*554 FILLER_16_156
*555 FILLER_16_167
*556 FILLER_16_175
*557 FILLER_16_24
*558 FILLER_16_33
*559 FILLER_16_45
*560 FILLER_16_57
*561 FILLER_16_71
*562 FILLER_16_80
*563 FILLER_16_85
*564 FILLER_16_91
*565 FILLER_17_107
*566 FILLER_17_111
*567 FILLER_17_113
*568 FILLER_17_117
*569 FILLER_17_138
*570 FILLER_17_162
*571 FILLER_17_172
*572 FILLER_17_179
*573 FILLER_17_28
*574 FILLER_17_3
*575 FILLER_17_41
*576 FILLER_17_52
*577 FILLER_17_57
*578 FILLER_17_61
*579 FILLER_17_7
*580 FILLER_17_71
*581 FILLER_17_96
*582 FILLER_18_116
*583 FILLER_18_124
*584 FILLER_18_132
*585 FILLER_18_141
*586 FILLER_18_146
*587 FILLER_18_15
*588 FILLER_18_157
*589 FILLER_18_167
*590 FILLER_18_174
*591 FILLER_18_182
*592 FILLER_18_24
*593 FILLER_18_3
*594 FILLER_18_36
*595 FILLER_18_43
*596 FILLER_18_47
*597 FILLER_18_58
*598 FILLER_18_72
*599 FILLER_18_8
*600 FILLER_18_80
*601 FILLER_18_92
*602 FILLER_19_10
*603 FILLER_19_103
*604 FILLER_19_108
*605 FILLER_19_113
*606 FILLER_19_137
*607 FILLER_19_161
*608 FILLER_19_167
*609 FILLER_19_169
*610 FILLER_19_17
*611 FILLER_19_179
*612 FILLER_19_28
*613 FILLER_19_3
*614 FILLER_19_41
*615 FILLER_19_52
*616 FILLER_19_64
*617 FILLER_19_68
*618 FILLER_19_89
*619 FILLER_19_97
*620 FILLER_1_106
*621 FILLER_1_116
*622 FILLER_1_123
*623 FILLER_1_130
*624 FILLER_1_142
*625 FILLER_1_154
*626 FILLER_1_166
*627 FILLER_1_169
*628 FILLER_1_177
*629 FILLER_1_32
*630 FILLER_1_39
*631 FILLER_1_52
*632 FILLER_1_57
*633 FILLER_1_6
*634 FILLER_1_65
*635 FILLER_1_78
*636 FILLER_20_114
*637 FILLER_20_121
*638 FILLER_20_13
*639 FILLER_20_132
*640 FILLER_20_144
*641 FILLER_20_151
*642 FILLER_20_158
*643 FILLER_20_165
*644 FILLER_20_172
*645 FILLER_20_179
*646 FILLER_20_24
*647 FILLER_20_29
*648 FILLER_20_39
*649 FILLER_20_47
*650 FILLER_20_58
*651 FILLER_20_71
*652 FILLER_20_80
*653 FILLER_20_85
*654 FILLER_21_106
*655 FILLER_21_11
*656 FILLER_21_113
*657 FILLER_21_136
*658 FILLER_21_160
*659 FILLER_21_172
*660 FILLER_21_179
*661 FILLER_21_19
*662 FILLER_21_27
*663 FILLER_21_3
*664 FILLER_21_48
*665 FILLER_21_63
*666 FILLER_21_72
*667 FILLER_21_82
*668 FILLER_22_120
*669 FILLER_22_131
*670 FILLER_22_139
*671 FILLER_22_145
*672 FILLER_22_152
*673 FILLER_22_159
*674 FILLER_22_166
*675 FILLER_22_173
*676 FILLER_22_181
*677 FILLER_22_24
*678 FILLER_22_29
*679 FILLER_22_3
*680 FILLER_22_33
*681 FILLER_22_46
*682 FILLER_22_61
*683 FILLER_22_65
*684 FILLER_22_7
*685 FILLER_22_72
*686 FILLER_22_80
*687 FILLER_22_85
*688 FILLER_22_89
*689 FILLER_22_96
*690 FILLER_23_108
*691 FILLER_23_11
*692 FILLER_23_121
*693 FILLER_23_129
*694 FILLER_23_151
*695 FILLER_23_158
*696 FILLER_23_166
*697 FILLER_23_17
*698 FILLER_23_172
*699 FILLER_23_180
*700 FILLER_23_28
*701 FILLER_23_3
*702 FILLER_23_48
*703 FILLER_23_61
*704 FILLER_23_85
*705 FILLER_23_95
*706 FILLER_24_100
*707 FILLER_24_113
*708 FILLER_24_119
*709 FILLER_24_129
*710 FILLER_24_136
*711 FILLER_24_146
*712 FILLER_24_154
*713 FILLER_24_161
*714 FILLER_24_173
*715 FILLER_24_179
*716 FILLER_24_19
*717 FILLER_24_27
*718 FILLER_24_32
*719 FILLER_24_39
*720 FILLER_24_47
*721 FILLER_24_58
*722 FILLER_24_69
*723 FILLER_24_7
*724 FILLER_24_80
*725 FILLER_24_85
*726 FILLER_25_102
*727 FILLER_25_110
*728 FILLER_25_113
*729 FILLER_25_124
*730 FILLER_25_136
*731 FILLER_25_140
*732 FILLER_25_148
*733 FILLER_25_15
*734 FILLER_25_156
*735 FILLER_25_163
*736 FILLER_25_167
*737 FILLER_25_169
*738 FILLER_25_181
*739 FILLER_25_27
*740 FILLER_25_3
*741 FILLER_25_42
*742 FILLER_25_52
*743 FILLER_25_66
*744 FILLER_25_70
*745 FILLER_25_78
*746 FILLER_25_89
*747 FILLER_26_107
*748 FILLER_26_131
*749 FILLER_26_139
*750 FILLER_26_148
*751 FILLER_26_15
*752 FILLER_26_155
*753 FILLER_26_179
*754 FILLER_26_27
*755 FILLER_26_29
*756 FILLER_26_3
*757 FILLER_26_44
*758 FILLER_26_55
*759 FILLER_26_64
*760 FILLER_26_72
*761 FILLER_26_80
*762 FILLER_26_85
*763 FILLER_26_97
*764 FILLER_27_107
*765 FILLER_27_111
*766 FILLER_27_118
*767 FILLER_27_142
*768 FILLER_27_149
*769 FILLER_27_15
*770 FILLER_27_161
*771 FILLER_27_167
*772 FILLER_27_169
*773 FILLER_27_181
*774 FILLER_27_27
*775 FILLER_27_3
*776 FILLER_27_39
*777 FILLER_27_44
*778 FILLER_27_52
*779 FILLER_27_57
*780 FILLER_27_81
*781 FILLER_27_96
*782 FILLER_28_105
*783 FILLER_28_116
*784 FILLER_28_124
*785 FILLER_28_128
*786 FILLER_28_134
*787 FILLER_28_144
*788 FILLER_28_151
*789 FILLER_28_163
*790 FILLER_28_175
*791 FILLER_28_179
*792 FILLER_28_18
*793 FILLER_28_26
*794 FILLER_28_29
*795 FILLER_28_41
*796 FILLER_28_45
*797 FILLER_28_52
*798 FILLER_28_6
*799 FILLER_28_63
*800 FILLER_28_72
*801 FILLER_28_76
*802 FILLER_28_80
*803 FILLER_29_108
*804 FILLER_29_133
*805 FILLER_29_140
*806 FILLER_29_147
*807 FILLER_29_159
*808 FILLER_29_167
*809 FILLER_29_179
*810 FILLER_29_18
*811 FILLER_29_30
*812 FILLER_29_34
*813 FILLER_29_38
*814 FILLER_29_45
*815 FILLER_29_52
*816 FILLER_29_57
*817 FILLER_29_6
*818 FILLER_29_81
*819 FILLER_29_87
*820 FILLER_2_116
*821 FILLER_2_123
*822 FILLER_2_13
*823 FILLER_2_130
*824 FILLER_2_138
*825 FILLER_2_141
*826 FILLER_2_153
*827 FILLER_2_165
*828 FILLER_2_173
*829 FILLER_2_179
*830 FILLER_2_24
*831 FILLER_2_29
*832 FILLER_2_51
*833 FILLER_2_55
*834 FILLER_2_59
*835 FILLER_2_6
*836 FILLER_2_72
*837 FILLER_2_80
*838 FILLER_2_92
*839 FILLER_30_105
*840 FILLER_30_111
*841 FILLER_30_116
*842 FILLER_30_123
*843 FILLER_30_130
*844 FILLER_30_138
*845 FILLER_30_144
*846 FILLER_30_154
*847 FILLER_30_166
*848 FILLER_30_179
*849 FILLER_30_20
*850 FILLER_30_29
*851 FILLER_30_34
*852 FILLER_30_45
*853 FILLER_30_52
*854 FILLER_30_57
*855 FILLER_30_6
*856 FILLER_30_61
*857 FILLER_30_65
*858 FILLER_30_72
*859 FILLER_30_79
*860 FILLER_30_83
*861 FILLER_30_85
*862 FILLER_30_93
*863 FILLER_3_103
*864 FILLER_3_111
*865 FILLER_3_116
*866 FILLER_3_123
*867 FILLER_3_130
*868 FILLER_3_137
*869 FILLER_3_14
*870 FILLER_3_149
*871 FILLER_3_161
*872 FILLER_3_167
*873 FILLER_3_172
*874 FILLER_3_179
*875 FILLER_3_3
*876 FILLER_3_38
*877 FILLER_3_46
*878 FILLER_3_54
*879 FILLER_3_66
*880 FILLER_3_78
*881 FILLER_3_86
*882 FILLER_3_94
*883 FILLER_4_119
*884 FILLER_4_126
*885 FILLER_4_133
*886 FILLER_4_139
*887 FILLER_4_144
*888 FILLER_4_151
*889 FILLER_4_163
*890 FILLER_4_175
*891 FILLER_4_19
*892 FILLER_4_24
*893 FILLER_4_29
*894 FILLER_4_36
*895 FILLER_4_40
*896 FILLER_4_46
*897 FILLER_4_54
*898 FILLER_4_62
*899 FILLER_4_7
*900 FILLER_4_70
*901 FILLER_4_76
*902 FILLER_4_85
*903 FILLER_4_94
*904 FILLER_5_107
*905 FILLER_5_111
*906 FILLER_5_120
*907 FILLER_5_128
*908 FILLER_5_135
*909 FILLER_5_142
*910 FILLER_5_149
*911 FILLER_5_15
*912 FILLER_5_156
*913 FILLER_5_172
*914 FILLER_5_180
*915 FILLER_5_21
*916 FILLER_5_28
*917 FILLER_5_3
*918 FILLER_5_52
*919 FILLER_5_77
*920 FILLER_5_85
*921 FILLER_6_105
*922 FILLER_6_133
*923 FILLER_6_139
*924 FILLER_6_144
*925 FILLER_6_15
*926 FILLER_6_151
*927 FILLER_6_158
*928 FILLER_6_165
*929 FILLER_6_172
*930 FILLER_6_179
*931 FILLER_6_27
*932 FILLER_6_3
*933 FILLER_6_32
*934 FILLER_6_36
*935 FILLER_6_40
*936 FILLER_6_47
*937 FILLER_6_58
*938 FILLER_6_66
*939 FILLER_6_71
*940 FILLER_6_80
*941 FILLER_7_108
*942 FILLER_7_116
*943 FILLER_7_140
*944 FILLER_7_149
*945 FILLER_7_156
*946 FILLER_7_163
*947 FILLER_7_167
*948 FILLER_7_179
*949 FILLER_7_19
*950 FILLER_7_31
*951 FILLER_7_36
*952 FILLER_7_43
*953 FILLER_7_52
*954 FILLER_7_60
*955 FILLER_7_68
*956 FILLER_7_7
*957 FILLER_7_72
*958 FILLER_7_83
*959 FILLER_8_106
*960 FILLER_8_130
*961 FILLER_8_138
*962 FILLER_8_141
*963 FILLER_8_15
*964 FILLER_8_164
*965 FILLER_8_171
*966 FILLER_8_178
*967 FILLER_8_182
*968 FILLER_8_27
*969 FILLER_8_29
*970 FILLER_8_3
*971 FILLER_8_35
*972 FILLER_8_42
*973 FILLER_8_50
*974 FILLER_8_61
*975 FILLER_8_76
*976 FILLER_9_10
*977 FILLER_9_101
*978 FILLER_9_106
*979 FILLER_9_121
*980 FILLER_9_125
*981 FILLER_9_131
*982 FILLER_9_139
*983 FILLER_9_143
*984 FILLER_9_16
*985 FILLER_9_164
*986 FILLER_9_172
*987 FILLER_9_179
*988 FILLER_9_20
*989 FILLER_9_27
*990 FILLER_9_3
*991 FILLER_9_34
*992 FILLER_9_41
*993 FILLER_9_52
*994 FILLER_9_57
*995 FILLER_9_72
*996 FILLER_9_97
*997 PHY_0
*998 PHY_1
*999 PHY_10
*1000 PHY_11
*1001 PHY_12
*1002 PHY_13
*1003 PHY_14
*1004 PHY_15
*1005 PHY_16
*1006 PHY_17
*1007 PHY_18
*1008 PHY_19
*1009 PHY_2
*1010 PHY_20
*1011 PHY_21
*1012 PHY_22
*1013 PHY_23
*1014 PHY_24
*1015 PHY_25
*1016 PHY_26
*1017 PHY_27
*1018 PHY_28
*1019 PHY_29
*1020 PHY_3
*1021 PHY_30
*1022 PHY_31
*1023 PHY_32
*1024 PHY_33
*1025 PHY_34
*1026 PHY_35
*1027 PHY_36
*1028 PHY_37
*1029 PHY_38
*1030 PHY_39
*1031 PHY_4
*1032 PHY_40
*1033 PHY_41
*1034 PHY_42
*1035 PHY_43
*1036 PHY_44
*1037 PHY_45
*1038 PHY_46
*1039 PHY_47
*1040 PHY_48
*1041 PHY_49
*1042 PHY_5
*1043 PHY_50
*1044 PHY_51
*1045 PHY_52
*1046 PHY_53
*1047 PHY_54
*1048 PHY_55
*1049 PHY_56
*1050 PHY_57
*1051 PHY_58
*1052 PHY_59
*1053 PHY_6
*1054 PHY_60
*1055 PHY_61
*1056 PHY_7
*1057 PHY_8
*1058 PHY_9
*1059 TAP_100
*1060 TAP_101
*1061 TAP_102
*1062 TAP_103
*1063 TAP_104
*1064 TAP_105
*1065 TAP_106
*1066 TAP_107
*1067 TAP_108
*1068 TAP_109
*1069 TAP_110
*1070 TAP_111
*1071 TAP_112
*1072 TAP_113
*1073 TAP_114
*1074 TAP_115
*1075 TAP_116
*1076 TAP_117
*1077 TAP_118
*1078 TAP_119
*1079 TAP_120
*1080 TAP_121
*1081 TAP_122
*1082 TAP_123
*1083 TAP_124
*1084 TAP_125
*1085 TAP_126
*1086 TAP_127
*1087 TAP_128
*1088 TAP_129
*1089 TAP_130
*1090 TAP_131
*1091 TAP_132
*1092 TAP_133
*1093 TAP_134
*1094 TAP_135
*1095 TAP_136
*1096 TAP_137
*1097 TAP_138
*1098 TAP_139
*1099 TAP_140
*1100 TAP_141
*1101 TAP_142
*1102 TAP_143
*1103 TAP_144
*1104 TAP_145
*1105 TAP_146
*1106 TAP_147
*1107 TAP_148
*1108 TAP_149
*1109 TAP_150
*1110 TAP_151
*1111 TAP_152
*1112 TAP_153
*1113 TAP_154
*1114 TAP_155
*1115 TAP_156
*1116 TAP_157
*1117 TAP_158
*1118 TAP_159
*1119 TAP_160
*1120 TAP_62
*1121 TAP_63
*1122 TAP_64
*1123 TAP_65
*1124 TAP_66
*1125 TAP_67
*1126 TAP_68
*1127 TAP_69
*1128 TAP_70
*1129 TAP_71
*1130 TAP_72
*1131 TAP_73
*1132 TAP_74
*1133 TAP_75
*1134 TAP_76
*1135 TAP_77
*1136 TAP_78
*1137 TAP_79
*1138 TAP_80
*1139 TAP_81
*1140 TAP_82
*1141 TAP_83
*1142 TAP_84
*1143 TAP_85
*1144 TAP_86
*1145 TAP_87
*1146 TAP_88
*1147 TAP_89
*1148 TAP_90
*1149 TAP_91
*1150 TAP_92
*1151 TAP_93
*1152 TAP_94
*1153 TAP_95
*1154 TAP_96
*1155 TAP_97
*1156 TAP_98
*1157 TAP_99
*1158 _294_
*1159 _295_
*1160 _296_
*1161 _297_
*1162 _298_
*1163 _299_
*1164 _300_
*1165 _301_
*1166 _302_
*1167 _303_
*1168 _304_
*1169 _305_
*1170 _306_
*1171 _307_
*1172 _308_
*1173 _309_
*1174 _310_
*1175 _311_
*1176 _312_
*1177 _313_
*1178 _314_
*1179 _315_
*1180 _316_
*1181 _317_
*1182 _318_
*1183 _319_
*1184 _320_
*1185 _321_
*1186 _322_
*1187 _323_
*1188 _324_
*1189 _325_
*1190 _326_
*1191 _327_
*1192 _328_
*1193 _329_
*1194 _330_
*1195 _331_
*1196 _332_
*1197 _333_
*1198 _334_
*1199 _335_
*1200 _336_
*1201 _337_
*1202 _338_
*1203 _339_
*1204 _340_
*1205 _341_
*1206 _342_
*1207 _343_
*1208 _344_
*1209 _345_
*1210 _346_
*1211 _347_
*1212 _348_
*1213 _349_
*1214 _350_
*1215 _351_
*1216 _352_
*1217 _353_
*1218 _354_
*1219 _355_
*1220 _356_
*1221 _357_
*1222 _358_
*1223 _359_
*1224 _360_
*1225 _361_
*1226 _362_
*1227 _363_
*1228 _364_
*1229 _365_
*1230 _366_
*1231 _367_
*1232 _368_
*1233 _369_
*1234 _370_
*1235 _371_
*1236 _372_
*1237 _373_
*1238 _374_
*1239 _375_
*1240 _376_
*1241 _377_
*1242 _378_
*1243 _379_
*1244 _380_
*1245 _381_
*1246 _382_
*1247 _383_
*1248 _384_
*1249 _385_
*1250 _386_
*1251 _387_
*1252 _388_
*1253 _389_
*1254 _390_
*1255 _391_
*1256 _392_
*1257 _393_
*1258 _394_
*1259 _395_
*1260 _396_
*1261 _397_
*1262 _398_
*1263 _399_
*1264 _400_
*1265 _401_
*1266 _402_
*1267 _403_
*1268 _404_
*1269 _405_
*1270 _406_
*1271 _407_
*1272 _408_
*1273 _409_
*1274 _410_
*1275 _411_
*1276 _412_
*1277 _413_
*1278 _414_
*1279 _415_
*1280 _416_
*1281 _417_
*1282 _418_
*1283 _419_
*1284 _420_
*1285 _421_
*1286 _422_
*1287 _423_
*1288 _424_
*1289 _425_
*1290 _426_
*1291 _427_
*1292 _428_
*1293 _429_
*1294 _430_
*1295 _431_
*1296 _432_
*1297 _433_
*1298 _434_
*1299 _435_
*1300 _436_
*1301 _437_
*1302 _438_
*1303 _439_
*1304 _440_
*1305 _441_
*1306 _442_
*1307 _443_
*1308 _444_
*1309 _445_
*1310 _446_
*1311 _447_
*1312 _448_
*1313 _449_
*1314 _450_
*1315 _451_
*1316 _452_
*1317 _453_
*1318 _454_
*1319 _455_
*1320 _456_
*1321 _457_
*1322 _458_
*1323 _459_
*1324 _460_
*1325 _461_
*1326 _462_
*1327 _463_
*1328 _464_
*1329 _465_
*1330 _466_
*1331 _467_
*1332 _468_
*1333 _469_
*1334 _470_
*1335 _471_
*1336 _472_
*1337 _473_
*1338 _474_
*1339 _475_
*1340 _476_
*1341 _477_
*1342 _478_
*1343 _479_
*1344 _480_
*1345 _481_
*1346 _482_
*1347 _483_
*1348 _484_
*1349 _485_
*1350 _486_
*1351 _487_
*1352 _488_
*1353 _489_
*1354 _490_
*1355 _491_
*1356 _492_
*1357 _493_
*1358 _494_
*1359 _495_
*1360 _496_
*1361 _497_
*1362 _498_
*1363 _499_
*1364 _500_
*1365 _501_
*1366 _502_
*1367 _503_
*1368 _504_
*1369 _505_
*1370 _506_
*1371 _507_
*1372 _508_
*1373 _509_
*1374 _510_
*1375 _511_
*1376 _512_
*1377 _513_
*1378 _514_
*1379 _515_
*1380 _516_
*1381 _517_
*1382 _518_
*1383 _519_
*1384 _520_
*1385 _521_
*1386 _522_
*1387 _523_
*1388 _524_
*1389 _525_
*1390 _526_
*1391 _527_
*1392 _528_
*1393 _529_
*1394 _530_
*1395 _531_
*1396 _532_
*1397 _533_
*1398 _534_
*1399 _535_
*1400 _536_
*1401 _537_
*1402 _538_
*1403 _539_
*1404 _540_
*1405 _541_
*1406 _542_
*1407 _543_
*1408 _544_
*1409 _545_
*1410 _546_
*1411 _547_
*1412 _548_
*1413 _549_
*1414 _550_
*1415 _551_
*1416 _552_
*1417 _553_
*1418 _554_
*1419 _555_
*1420 _556_
*1421 _557_
*1422 _558_
*1423 _559_
*1424 _560_
*1425 _561_
*1426 _562_
*1427 _563_
*1428 _564_
*1429 _565_
*1430 _566_
*1431 _567_
*1432 _568_
*1433 _569_
*1434 _570_
*1435 _571_
*1436 _572_
*1437 _573_
*1438 _574_
*1439 _575_
*1440 _576_
*1441 _577_
*1442 _578_
*1443 _579_
*1444 _580_
*1445 _581_
*1446 _582_
*1447 _583_
*1448 _584_
*1449 _585_
*1450 _586_
*1451 _587_
*1452 _588_
*1453 _589_
*1454 _590_
*1455 _591_
*1456 _592_
*1457 _593_
*1458 _594_
*1459 _595_
*1460 _596_
*1461 _597_
*1462 _598_
*1463 _599_
*1464 _600_
*1465 _601_
*1466 _602_
*1467 _603_
*1468 _604_
*1469 _605_
*1470 _606_
*1471 _607_
*1472 _608_
*1473 _609_
*1474 _610_
*1475 _611_
*1476 _612_
*1477 _613_
*1478 _614_
*1479 _615_
*1480 _616_
*1481 _617_
*1482 _618_
*1483 _619_
*1484 _620_
*1485 _621_
*1486 _622_
*1487 _623_
*1488 _624_
*1489 _625_
*1490 _626_
*1491 _627_
*1492 _628_
*1493 _629_
*1494 _630_
*1495 _631_
*1496 _632_
*1497 _633_
*1498 _634_
*1499 _635_
*1500 _636_
*1501 _637_
*1502 _638_
*1503 _639_
*1504 _640_
*1505 _641_
*1506 _642_
*1507 _643_
*1508 _644_
*1509 clkbuf_0_clk
*1510 clkbuf_1_0_0_clk
*1511 clkbuf_1_1_0_clk
*1512 input1
*1513 input10
*1514 input11
*1515 input12
*1516 input13
*1517 input14
*1518 input15
*1519 input16
*1520 input17
*1521 input18
*1522 input19
*1523 input2
*1524 input20
*1525 input21
*1526 input22
*1527 input23
*1528 input24
*1529 input25
*1530 input26
*1531 input27
*1532 input28
*1533 input29
*1534 input3
*1535 input30
*1536 input31
*1537 input32
*1538 input4
*1539 input5
*1540 input6
*1541 input7
*1542 input8
*1543 input9
*1544 output33
*1545 output34
*1546 output35
*1547 output36
*1548 output37

*PORTS
clk I
corner[0] O
corner[1] O
corner[2] O
lock O
lower[0] I
lower[1] I
lower[2] I
lower[3] I
lower[4] I
lower[5] I
lower[6] I
lower[7] I
lower[8] I
lower[9] I
pwm O
ref I
ref_time[0] I
ref_time[1] I
ref_time[2] I
ref_time[3] I
ref_time[4] I
ref_time[5] I
ref_time[6] I
ref_time[7] I
ref_time[8] I
ref_time[9] I
reset I
upper[0] I
upper[1] I
upper[2] I
upper[3] I
upper[4] I
upper[5] I
upper[6] I
upper[7] I
upper[8] I
upper[9] I

*D_NET *3 0.0114804
*CONN
*P clk I
*I *1509:A I *D sky130_fd_sc_hd__clkbuf_16
*CAP
1 clk 0.000800532
2 *1509:A 0
3 *3:11 0.00251136
4 *3:10 0.00331189
5 *3:10 *1161:A 0.000239223
6 *3:10 *1162:B2 0
7 *3:10 *1376:B 0.000238107
8 *3:10 *1378:A 0.000481241
9 *3:10 *1380:B 0.00011818
10 *3:10 *1465:D 0.000122068
11 *3:10 *141:10 0
12 *3:10 *315:21 0
13 *3:10 *318:11 0.000579032
14 *3:10 *371:14 0
15 *3:11 *1191:C1 0
16 *3:11 *1192:A2 0.000171811
17 *3:11 *1194:A2 4.19401e-06
18 *3:11 *1194:B1 0.000239605
19 *3:11 *1254:A 0
20 *3:11 *1312:C1 8.67988e-05
21 *3:11 *1341:A 0
22 *3:11 *1372:A 8.79128e-05
23 *3:11 *1461:RESET_B 0.000297762
24 *3:11 *1462:D 0.000367833
25 *3:11 *1466:CLK 0
26 *3:11 *1469:CLK 0
27 *3:11 *1475:CLK 0
28 *3:11 *1491:CLK 0.000112278
29 *3:11 *1491:RESET_B 0
30 *3:11 *62:8 7.15593e-05
31 *3:11 *93:15 0
32 *3:11 *103:8 0.000175689
33 *3:11 *318:11 2.69795e-05
34 *3:11 *358:31 0
35 *3:11 *359:8 4.75801e-05
36 *3:11 *359:10 0.000115058
37 *3:11 *359:12 5.96936e-05
38 *3:11 *359:14 6.25467e-05
39 *3:11 *359:19 9.05757e-05
40 *3:11 *359:30 4.3116e-06
41 *3:11 *362:39 0
42 *3:11 *381:16 0.000115976
43 *3:11 *384:32 0.000433913
44 *3:11 *384:45 0.000506679
45 *3:11 *407:14 0
46 *3:11 *417:10 0
47 *3:11 *418:8 0
*RES
1 clk *3:10 35.4947 
2 *3:10 *3:11 76.1621 
3 *3:11 *1509:A 13.7491 
*END

*D_NET *4 0.000448426
*CONN
*P corner[0] O
*I *1544:X O *D sky130_fd_sc_hd__buf_2
*CAP
1 corner[0] 0.000224213
2 *1544:X 0.000224213
*RES
1 *1544:X corner[0] 18.2481 
*END

*D_NET *5 0.000588976
*CONN
*P corner[1] O
*I *1545:X O *D sky130_fd_sc_hd__buf_2
*CAP
1 corner[1] 0.000270672
2 *1545:X 0.000270672
3 corner[1] *1545:A 4.76318e-05
*RES
1 *1545:X corner[1] 19.9092 
*END

*D_NET *6 0.00107911
*CONN
*P corner[2] O
*I *1546:X O *D sky130_fd_sc_hd__buf_2
*CAP
1 corner[2] 0.00052036
2 *1546:X 0.00052036
3 corner[2] *1407:A 1.99642e-05
4 corner[2] *398:24 1.84293e-05
*RES
1 *1546:X corner[2] 26.6714 
*END

*D_NET *7 0.00103191
*CONN
*P lock O
*I *1547:X O *D sky130_fd_sc_hd__buf_2
*CAP
1 lock 0.000488132
2 *1547:X 0.000488132
3 lock *291:13 5.56461e-05
4 lock *389:12 0
*RES
1 *1547:X lock 26.1168 
*END

*D_NET *8 0.00364112
*CONN
*P lower[0] I
*I *1512:A I *D sky130_fd_sc_hd__clkbuf_1
*CAP
1 lower[0] 0.000933078
2 *1512:A 0
3 *8:13 0.000933078
4 *8:13 *1326:A 0.000547237
5 *8:13 *1326:B 4.82966e-05
6 *8:13 *1328:A 0.000334626
7 *8:13 *1332:B 0.000483474
8 *8:13 *289:5 6.50586e-05
9 *8:13 *370:15 0.000116986
10 *8:13 *398:24 0.000179286
*RES
1 lower[0] *8:13 44.8784 
2 *8:13 *1512:A 9.24915 
*END

*D_NET *9 0.000941276
*CONN
*P lower[1] I
*I *1523:A I *D sky130_fd_sc_hd__dlymetal6s2s_1
*CAP
1 lower[1] 0.000470638
2 *1523:A 0.000470638
3 *1523:A *1536:A 0
*RES
1 lower[1] *1523:A 26.3927 
*END

*D_NET *10 0.00139898
*CONN
*P lower[2] I
*I *1534:A I *D sky130_fd_sc_hd__clkbuf_2
*CAP
1 lower[2] 0.000699492
2 *1534:A 0.000699492
*RES
1 lower[2] *1534:A 31.5263 
*END

*D_NET *11 0.00161832
*CONN
*P lower[3] I
*I *1538:A I *D sky130_fd_sc_hd__clkbuf_2
*CAP
1 lower[3] 0.000584767
2 *1538:A 0.000584767
3 *1538:A *1164:A 0.000277502
4 *1538:A *1513:A 0
5 *1538:A *380:8 0
6 *1538:A *401:7 0.000171288
*RES
1 lower[3] *1538:A 30.6874 
*END

*D_NET *12 0.00056349
*CONN
*P lower[4] I
*I *1539:A I *D sky130_fd_sc_hd__dlymetal6s2s_1
*CAP
1 lower[4] 0.000281745
2 *1539:A 0.000281745
3 *1539:A *372:199 0
*RES
1 lower[4] *1539:A 19.8327 
*END

*D_NET *13 0.00076361
*CONN
*P lower[5] I
*I *1540:A I *D sky130_fd_sc_hd__clkbuf_1
*CAP
1 lower[5] 0.000355545
2 *1540:A 0.000355545
3 *1540:A *379:6 0
4 *1540:A *403:8 5.25197e-05
*RES
1 lower[5] *1540:A 20.9691 
*END

*D_NET *14 0.00136875
*CONN
*P lower[6] I
*I *1541:A I *D sky130_fd_sc_hd__clkbuf_1
*CAP
1 lower[6] 0.000623184
2 *1541:A 0.000623184
3 *1541:A *327:42 0
4 *1541:A *374:11 0.000122378
5 *1541:A *381:12 0
6 *1541:A *389:8 0
*RES
1 lower[6] *1541:A 30.2693 
*END

*D_NET *15 0.000760827
*CONN
*P lower[7] I
*I *1542:A I *D sky130_fd_sc_hd__clkbuf_1
*CAP
1 lower[7] 0.000275846
2 *1542:A 0.000275846
3 *1542:A *1536:A 0.000191215
4 *1542:A *374:11 1.79196e-05
*RES
1 lower[7] *1542:A 21.0784 
*END

*D_NET *16 0.00048084
*CONN
*P lower[8] I
*I *1543:A I *D sky130_fd_sc_hd__dlymetal6s2s_1
*CAP
1 lower[8] 0.00024042
2 *1543:A 0.00024042
3 *1543:A *372:189 0
*RES
1 lower[8] *1543:A 19.0022 
*END

*D_NET *17 0.0016315
*CONN
*P lower[9] I
*I *1513:A I *D sky130_fd_sc_hd__clkbuf_2
*CAP
1 lower[9] 0.000727479
2 *1513:A 0.000727479
3 *1513:A *380:8 0.000176542
4 *1538:A *1513:A 0
*RES
1 lower[9] *1513:A 30.5964 
*END

*D_NET *18 0.000784815
*CONN
*P pwm O
*I *1548:X O *D sky130_fd_sc_hd__buf_2
*CAP
1 pwm 0.000342332
2 *1548:X 0.000342332
3 pwm *333:44 5.25197e-05
4 pwm *334:44 4.76318e-05
*RES
1 *1548:X pwm 20.2151 
*END

*D_NET *19 0.000810248
*CONN
*P ref I
*I *1514:A I *D sky130_fd_sc_hd__buf_12
*CAP
1 ref 0.000376209
2 *1514:A 0.000376209
3 *1514:A *388:9 5.78308e-05
*RES
1 ref *1514:A 21.3844 
*END

*D_NET *20 0.00138622
*CONN
*P ref_time[0] I
*I *1515:A I *D sky130_fd_sc_hd__clkbuf_1
*CAP
1 ref_time[0] 0.000693111
2 *1515:A 0.000693111
*RES
1 ref_time[0] *1515:A 32.4962 
*END

*D_NET *21 0.0015385
*CONN
*P ref_time[1] I
*I *1516:A I *D sky130_fd_sc_hd__clkbuf_1
*CAP
1 ref_time[1] 0.000769251
2 *1516:A 0.000769251
*RES
1 ref_time[1] *1516:A 34.5724 
*END

*D_NET *22 0.000934795
*CONN
*P ref_time[2] I
*I *1517:A I *D sky130_fd_sc_hd__clkbuf_1
*CAP
1 ref_time[2] 0.000467397
2 *1517:A 0.000467397
3 *1517:A *1524:A 0
*RES
1 ref_time[2] *1517:A 23.5699 
*END

*D_NET *23 0.0031137
*CONN
*P ref_time[3] I
*I *1518:A I *D sky130_fd_sc_hd__clkbuf_1
*CAP
1 ref_time[3] 0.000704421
2 *1518:A 0.000704421
3 *1518:A *1167:B 3.14978e-05
4 *1518:A *1174:C1 8.47748e-05
5 *1518:A *1175:A1 0
6 *1518:A *1175:A2 3.46239e-05
7 *1518:A *1176:C1 0
8 *1518:A *145:15 0.000122814
9 *1518:A *373:11 0.000207999
10 *1518:A *376:7 7.02172e-06
11 *1518:A *382:10 0.00121613
*RES
1 ref_time[3] *1518:A 41.1569 
*END

*D_NET *24 0.000704148
*CONN
*P ref_time[4] I
*I *1519:A I *D sky130_fd_sc_hd__dlymetal6s2s_1
*CAP
1 ref_time[4] 0.000318424
2 *1519:A 0.000318424
3 *1519:A *108:14 3.13394e-05
4 *1519:A *333:44 3.59606e-05
*RES
1 ref_time[4] *1519:A 19.3081 
*END

*D_NET *25 0.0009452
*CONN
*P ref_time[5] I
*I *1520:A I *D sky130_fd_sc_hd__clkbuf_1
*CAP
1 ref_time[5] 0.00043516
2 *1520:A 0.00043516
3 *1520:A *392:10 7.48797e-05
*RES