* NGSPICE file created from wrapper.ext - technology: sky130A

* Black-box entry subcircuit for sky130_fd_sc_hd__dfrtp_1 abstract view
.subckt sky130_fd_sc_hd__dfrtp_1 CLK D RESET_B VGND VNB VPB VPWR Q
.ends

* Black-box entry subcircuit for sky130_fd_sc_hd__decap_4 abstract view
.subckt sky130_fd_sc_hd__decap_4 VGND VNB VPB VPWR
.ends

* Black-box entry subcircuit for sky130_fd_sc_hd__tapvpwrvgnd_1 abstract view
.subckt sky130_fd_sc_hd__tapvpwrvgnd_1 VGND VPWR
.ends

* Black-box entry subcircuit for sky130_ef_sc_hd__decap_12 abstract view
.subckt sky130_ef_sc_hd__decap_12 VGND VNB VPB VPWR
.ends

* Black-box entry subcircuit for sky130_fd_sc_hd__fill_2 abstract view
.subckt sky130_fd_sc_hd__fill_2 VGND VNB VPB VPWR
.ends

* Black-box entry subcircuit for sky130_fd_sc_hd__decap_8 abstract view
.subckt sky130_fd_sc_hd__decap_8 VGND VNB VPB VPWR
.ends

* Black-box entry subcircuit for sky130_fd_sc_hd__decap_6 abstract view
.subckt sky130_fd_sc_hd__decap_6 VGND VNB VPB VPWR
.ends

* Black-box entry subcircuit for sky130_fd_sc_hd__decap_3 abstract view
.subckt sky130_fd_sc_hd__decap_3 VGND VNB VPB VPWR
.ends

* Black-box entry subcircuit for sky130_fd_sc_hd__clkbuf_1 abstract view
.subckt sky130_fd_sc_hd__clkbuf_1 A VGND VNB VPB VPWR X
.ends

* Black-box entry subcircuit for sky130_fd_sc_hd__inv_2 abstract view
.subckt sky130_fd_sc_hd__inv_2 A VGND VNB VPB VPWR Y
.ends

* Black-box entry subcircuit for sky130_fd_sc_hd__clkbuf_4 abstract view
.subckt sky130_fd_sc_hd__clkbuf_4 A VGND VNB VPB VPWR X
.ends

* Black-box entry subcircuit for sky130_fd_sc_hd__mux2_1 abstract view
.subckt sky130_fd_sc_hd__mux2_1 A0 A1 S VGND VNB VPB VPWR X
.ends

* Black-box entry subcircuit for sky130_fd_sc_hd__fill_1 abstract view
.subckt sky130_fd_sc_hd__fill_1 VGND VNB VPB VPWR
.ends

* Black-box entry subcircuit for sky130_fd_sc_hd__a21oi_1 abstract view
.subckt sky130_fd_sc_hd__a21oi_1 A1 A2 B1 VGND VNB VPB VPWR Y
.ends

* Black-box entry subcircuit for sky130_fd_sc_hd__buf_4 abstract view
.subckt sky130_fd_sc_hd__buf_4 A VGND VNB VPB VPWR X
.ends

* Black-box entry subcircuit for sky130_fd_sc_hd__clkbuf_8 abstract view
.subckt sky130_fd_sc_hd__clkbuf_8 A VGND VNB VPB VPWR X
.ends

* Black-box entry subcircuit for sky130_fd_sc_hd__dfrtp_2 abstract view
.subckt sky130_fd_sc_hd__dfrtp_2 CLK D RESET_B VGND VNB VPB VPWR Q
.ends

* Black-box entry subcircuit for sky130_fd_sc_hd__nand2_1 abstract view
.subckt sky130_fd_sc_hd__nand2_1 A B VGND VNB VPB VPWR Y
.ends

* Black-box entry subcircuit for sky130_fd_sc_hd__nor2_1 abstract view
.subckt sky130_fd_sc_hd__nor2_1 A B VGND VNB VPB VPWR Y
.ends

* Black-box entry subcircuit for sky130_fd_sc_hd__conb_1 abstract view
.subckt sky130_fd_sc_hd__conb_1 VGND VNB VPB VPWR HI LO
.ends

* Black-box entry subcircuit for sky130_fd_sc_hd__and2_1 abstract view
.subckt sky130_fd_sc_hd__and2_1 A B VGND VNB VPB VPWR X
.ends

* Black-box entry subcircuit for sky130_fd_sc_hd__or2b_1 abstract view
.subckt sky130_fd_sc_hd__or2b_1 A B_N VGND VNB VPB VPWR X
.ends

* Black-box entry subcircuit for sky130_fd_sc_hd__a32o_1 abstract view
.subckt sky130_fd_sc_hd__a32o_1 A1 A2 A3 B1 B2 VGND VNB VPB VPWR X
.ends

* Black-box entry subcircuit for sky130_fd_sc_hd__xor2_1 abstract view
.subckt sky130_fd_sc_hd__xor2_1 A B VGND VNB VPB VPWR X
.ends

* Black-box entry subcircuit for sky130_fd_sc_hd__clkbuf_16 abstract view
.subckt sky130_fd_sc_hd__clkbuf_16 A VGND VNB VPB VPWR X
.ends

* Black-box entry subcircuit for sky130_fd_sc_hd__o2111a_1 abstract view
.subckt sky130_fd_sc_hd__o2111a_1 A1 A2 B1 C1 D1 VGND VNB VPB VPWR X
.ends

* Black-box entry subcircuit for sky130_fd_sc_hd__or3b_1 abstract view
.subckt sky130_fd_sc_hd__or3b_1 A B C_N VGND VNB VPB VPWR X
.ends

* Black-box entry subcircuit for sky130_fd_sc_hd__xnor2_1 abstract view
.subckt sky130_fd_sc_hd__xnor2_1 A B VGND VNB VPB VPWR Y
.ends

* Black-box entry subcircuit for sky130_fd_sc_hd__o221a_1 abstract view
.subckt sky130_fd_sc_hd__o221a_1 A1 A2 B1 B2 C1 VGND VNB VPB VPWR X
.ends

* Black-box entry subcircuit for sky130_fd_sc_hd__and3_1 abstract view
.subckt sky130_fd_sc_hd__and3_1 A B C VGND VNB VPB VPWR X
.ends

* Black-box entry subcircuit for sky130_fd_sc_hd__a22oi_1 abstract view
.subckt sky130_fd_sc_hd__a22oi_1 A1 A2 B1 B2 VGND VNB VPB VPWR Y
.ends

* Black-box entry subcircuit for sky130_fd_sc_hd__a22o_1 abstract view
.subckt sky130_fd_sc_hd__a22o_1 A1 A2 B1 B2 VGND VNB VPB VPWR X
.ends

* Black-box entry subcircuit for sky130_fd_sc_hd__o22a_1 abstract view
.subckt sky130_fd_sc_hd__o22a_1 A1 A2 B1 B2 VGND VNB VPB VPWR X
.ends

* Black-box entry subcircuit for sky130_fd_sc_hd__dfxtp_1 abstract view
.subckt sky130_fd_sc_hd__dfxtp_1 CLK D VGND VNB VPB VPWR Q
.ends

* Black-box entry subcircuit for sky130_fd_sc_hd__a21o_1 abstract view
.subckt sky130_fd_sc_hd__a21o_1 A1 A2 B1 VGND VNB VPB VPWR X
.ends

* Black-box entry subcircuit for sky130_fd_sc_hd__dfstp_2 abstract view
.subckt sky130_fd_sc_hd__dfstp_2 CLK D SET_B VGND VNB VPB VPWR Q
.ends

* Black-box entry subcircuit for sky130_fd_sc_hd__or3_1 abstract view
.subckt sky130_fd_sc_hd__or3_1 A B C VGND VNB VPB VPWR X
.ends

* Black-box entry subcircuit for sky130_fd_sc_hd__or2_1 abstract view
.subckt sky130_fd_sc_hd__or2_1 A B VGND VNB VPB VPWR X
.ends

* Black-box entry subcircuit for sky130_fd_sc_hd__and4b_1 abstract view
.subckt sky130_fd_sc_hd__and4b_1 A_N B C D VGND VNB VPB VPWR X
.ends

* Black-box entry subcircuit for sky130_fd_sc_hd__dlymetal6s2s_1 abstract view
.subckt sky130_fd_sc_hd__dlymetal6s2s_1 A VGND VNB VPB VPWR X
.ends

* Black-box entry subcircuit for sky130_fd_sc_hd__a211o_1 abstract view
.subckt sky130_fd_sc_hd__a211o_1 A1 A2 B1 C1 VGND VNB VPB VPWR X
.ends

* Black-box entry subcircuit for sky130_fd_sc_hd__dfrtp_4 abstract view
.subckt sky130_fd_sc_hd__dfrtp_4 CLK D RESET_B VGND VNB VPB VPWR Q
.ends

* Black-box entry subcircuit for sky130_fd_sc_hd__a221oi_1 abstract view
.subckt sky130_fd_sc_hd__a221oi_1 A1 A2 B1 B2 C1 VGND VNB VPB VPWR Y
.ends

* Black-box entry subcircuit for sky130_fd_sc_hd__a221o_1 abstract view
.subckt sky130_fd_sc_hd__a221o_1 A1 A2 B1 B2 C1 VGND VNB VPB VPWR X
.ends

* Black-box entry subcircuit for sky130_fd_sc_hd__and2b_1 abstract view
.subckt sky130_fd_sc_hd__and2b_1 A_N B VGND VNB VPB VPWR X
.ends

* Black-box entry subcircuit for sky130_fd_sc_hd__xnor2_2 abstract view
.subckt sky130_fd_sc_hd__xnor2_2 A B VGND VNB VPB VPWR Y
.ends

* Black-box entry subcircuit for sky130_fd_sc_hd__a22oi_2 abstract view
.subckt sky130_fd_sc_hd__a22oi_2 A1 A2 B1 B2 VGND VNB VPB VPWR Y
.ends

* Black-box entry subcircuit for sky130_fd_sc_hd__and3b_1 abstract view
.subckt sky130_fd_sc_hd__and3b_1 A_N B C VGND VNB VPB VPWR X
.ends

* Black-box entry subcircuit for sky130_fd_sc_hd__dfstp_1 abstract view
.subckt sky130_fd_sc_hd__dfstp_1 CLK D SET_B VGND VNB VPB VPWR Q
.ends

* Black-box entry subcircuit for sky130_fd_sc_hd__o31a_1 abstract view
.subckt sky130_fd_sc_hd__o31a_1 A1 A2 A3 B1 VGND VNB VPB VPWR X
.ends

* Black-box entry subcircuit for sky130_fd_sc_hd__nand3_1 abstract view
.subckt sky130_fd_sc_hd__nand3_1 A B C VGND VNB VPB VPWR Y
.ends

* Black-box entry subcircuit for sky130_fd_sc_hd__and4_1 abstract view
.subckt sky130_fd_sc_hd__and4_1 A B C D VGND VNB VPB VPWR X
.ends

* Black-box entry subcircuit for sky130_fd_sc_hd__o211a_1 abstract view
.subckt sky130_fd_sc_hd__o211a_1 A1 A2 B1 C1 VGND VNB VPB VPWR X
.ends

* Black-box entry subcircuit for sky130_fd_sc_hd__a21bo_1 abstract view
.subckt sky130_fd_sc_hd__a21bo_1 A1 A2 B1_N VGND VNB VPB VPWR X
.ends

* Black-box entry subcircuit for sky130_fd_sc_hd__o21ai_1 abstract view
.subckt sky130_fd_sc_hd__o21ai_1 A1 A2 B1 VGND VNB VPB VPWR Y
.ends

* Black-box entry subcircuit for sky130_fd_sc_hd__or4b_1 abstract view
.subckt sky130_fd_sc_hd__or4b_1 A B C D_N VGND VNB VPB VPWR X
.ends

* Black-box entry subcircuit for sky130_fd_sc_hd__diode_2 abstract view
.subckt sky130_fd_sc_hd__diode_2 DIODE VGND VNB VPB VPWR
.ends

* Black-box entry subcircuit for sky130_fd_sc_hd__o22ai_1 abstract view
.subckt sky130_fd_sc_hd__o22ai_1 A1 A2 B1 B2 VGND VNB VPB VPWR Y
.ends

* Black-box entry subcircuit for sky130_fd_sc_hd__clkinv_2 abstract view
.subckt sky130_fd_sc_hd__clkinv_2 A VGND VNB VPB VPWR Y
.ends

.subckt wrapper clk_in corner[0] corner[1] corner[2] dac[0] dac[1] dac[2] dac[3] dac[4]
+ dac[5] dac[6] dac[7] dac[8] dac[9] load lock read ref_in reset s_in s_out slope_ctrl[0]
+ slope_ctrl[1] slope_ctrl[2] vbias1[0] vbias1[1] vbias1[2] vbias1[3] vbias1[4] vbias1[5]
+ vbias1[6] vbias1[7] vbias2[0] vbias2[1] vbias2[2] vbias2[3] vbias2[4] vbias2[5]
+ vbias2[6] vbias2[7] vbias3[0] vbias3[1] vbias3[2] vbias3[3] vbias3[4] vbias3[5]
+ vbias3[6] vbias3[7] vco_in vdd vss
X_2037_ clknet_4_11_0_clk_in _0301_ _0066_ vss vss vdd vdd d2.r_reg\[45\] sky130_fd_sc_hd__dfrtp_1
X_2106_ clknet_4_13_0_clk_in _0369_ _0132_ vss vss vdd vdd d2.t_load\[14\] sky130_fd_sc_hd__dfrtp_1
XFILLER_39_244 vss vss vdd vdd sky130_fd_sc_hd__decap_4
XTAP_177 vss vdd sky130_fd_sc_hd__tapvpwrvgnd_1
XTAP_188 vss vdd sky130_fd_sc_hd__tapvpwrvgnd_1
XTAP_199 vss vdd sky130_fd_sc_hd__tapvpwrvgnd_1
XFILLER_52_29 vss vss vdd vdd sky130_ef_sc_hd__decap_12
XFILLER_10_306 vss vss vdd vdd sky130_fd_sc_hd__fill_2
XFILLER_22_188 vss vss vdd vdd sky130_fd_sc_hd__decap_8
XFILLER_60_228 vss vss vdd vdd sky130_fd_sc_hd__decap_6
XFILLER_45_225 vss vss vdd vdd sky130_fd_sc_hd__decap_3
XFILLER_26_96 vss vss vdd vdd sky130_fd_sc_hd__decap_8
XFILLER_26_85 vss vss vdd vdd sky130_fd_sc_hd__fill_2
XFILLER_26_41 vss vss vdd vdd sky130_fd_sc_hd__decap_8
XFILLER_13_166 vss vss vdd vdd sky130_fd_sc_hd__fill_2
XFILLER_47_8 vss vss vdd vdd sky130_ef_sc_hd__decap_12
XFILLER_5_354 vss vss vdd vdd sky130_ef_sc_hd__decap_12
X_1270_ _0462_ vss vss vdd vdd _0385_ sky130_fd_sc_hd__clkbuf_1
XFILLER_36_258 vss vss vdd vdd sky130_fd_sc_hd__decap_4
X_0985_ d5.fll_core.counter1.count\[9\] vss vss vdd vdd _0780_ sky130_fd_sc_hd__inv_2
X_1606_ net1 vss vss vdd vdd _0684_ sky130_fd_sc_hd__clkbuf_4
X_1537_ _0636_ vss vss vdd vdd _0289_ sky130_fd_sc_hd__clkbuf_1
X_1468_ d2.r_reg\[55\] d2.t_load\[54\] _0586_ vss vss vdd vdd _0589_ sky130_fd_sc_hd__mux2_1
X_1399_ _0541_ vss vss vdd vdd _0332_ sky130_fd_sc_hd__clkbuf_1
XFILLER_63_39 vss vss vdd vdd sky130_fd_sc_hd__decap_3
XFILLER_27_225 vss vss vdd vdd sky130_fd_sc_hd__fill_2
XFILLER_2_357 vss vss vdd vdd sky130_fd_sc_hd__decap_6
XFILLER_12_76 vss vss vdd vdd sky130_fd_sc_hd__decap_8
XFILLER_37_51 vss vss vdd vdd sky130_fd_sc_hd__decap_4
XFILLER_53_61 vss vss vdd vdd sky130_fd_sc_hd__fill_1
XFILLER_56_309 vss vss vdd vdd sky130_fd_sc_hd__fill_2
X_1253_ _0976_ vss vss vdd vdd _0393_ sky130_fd_sc_hd__clkbuf_1
XFILLER_49_350 vss vss vdd vdd sky130_fd_sc_hd__decap_4
XFILLER_1_390 vss vss vdd vdd sky130_fd_sc_hd__fill_2
X_1322_ _0478_ vss vss vdd vdd _0490_ sky130_fd_sc_hd__clkbuf_4
X_1184_ net20 d2.r_reg\[70\] _0934_ vss vss vdd vdd _0940_ sky130_fd_sc_hd__mux2_1
XFILLER_24_239 vss vss vdd vdd sky130_fd_sc_hd__decap_4
XFILLER_32_250 vss vss vdd vdd sky130_fd_sc_hd__fill_2
XFILLER_59_169 vss vss vdd vdd sky130_fd_sc_hd__fill_2
XFILLER_55_342 vss vss vdd vdd sky130_fd_sc_hd__decap_4
XFILLER_55_331 vss vss vdd vdd sky130_fd_sc_hd__decap_4
XFILLER_23_261 vss vss vdd vdd sky130_fd_sc_hd__decap_4
XFILLER_23_86 vss vss vdd vdd sky130_fd_sc_hd__decap_6
XFILLER_38_309 vss vss vdd vdd sky130_fd_sc_hd__fill_2
XFILLER_2_176 vss vss vdd vdd sky130_ef_sc_hd__decap_12
XFILLER_65_117 vss vss vdd vdd sky130_fd_sc_hd__fill_1
XFILLER_64_82 vss vss vdd vdd sky130_fd_sc_hd__fill_2
XFILLER_61_345 vss vss vdd vdd sky130_fd_sc_hd__decap_4
XFILLER_0_24 vss vss vdd vdd sky130_fd_sc_hd__decap_4
XFILLER_0_57 vss vss vdd vdd sky130_fd_sc_hd__decap_6
XFILLER_0_79 vss vss vdd vdd sky130_fd_sc_hd__decap_4
X_1871_ _0769_ vss vss vdd vdd _0145_ sky130_fd_sc_hd__inv_2
X_1940_ _0775_ vss vss vdd vdd _0208_ sky130_fd_sc_hd__inv_2
XFILLER_9_55 vss vss vdd vdd sky130_fd_sc_hd__fill_1
XFILLER_9_99 vss vss vdd vdd sky130_fd_sc_hd__fill_1
XFILLER_14_250 vss vss vdd vdd sky130_fd_sc_hd__fill_2
XFILLER_50_3 vss vss vdd vdd sky130_ef_sc_hd__decap_12
X_1236_ _0967_ vss vss vdd vdd _0401_ sky130_fd_sc_hd__clkbuf_1
X_1305_ _0481_ vss vss vdd vdd _0369_ sky130_fd_sc_hd__clkbuf_1
XFILLER_64_194 vss vss vdd vdd sky130_fd_sc_hd__fill_2
X_1098_ _0826_ _0886_ _0887_ vss vss vdd vdd _0888_ sky130_fd_sc_hd__a21oi_1
XFILLER_12_209 vss vss vdd vdd sky130_ef_sc_hd__decap_12
X_1167_ net28 d2.r_reg\[78\] _0923_ vss vss vdd vdd _0931_ sky130_fd_sc_hd__mux2_1
XFILLER_60_29 vss vss vdd vdd sky130_ef_sc_hd__decap_12
XFILLER_20_253 vss vss vdd vdd sky130_fd_sc_hd__fill_2
XFILLER_20_264 vss vss vdd vdd sky130_fd_sc_hd__decap_8
XFILLER_28_353 vss vss vdd vdd sky130_fd_sc_hd__decap_4
XFILLER_28_342 vss vss vdd vdd sky130_fd_sc_hd__decap_4
XFILLER_34_85 vss vss vdd vdd sky130_fd_sc_hd__decap_4
XFILLER_34_52 vss vss vdd vdd sky130_fd_sc_hd__decap_4
XFILLER_34_41 vss vss vdd vdd sky130_fd_sc_hd__decap_8
XTAP_507 vss vdd sky130_fd_sc_hd__tapvpwrvgnd_1
XFILLER_11_297 vss vss vdd vdd sky130_fd_sc_hd__fill_1
XTAP_529 vss vdd sky130_fd_sc_hd__tapvpwrvgnd_1
XTAP_518 vss vdd sky130_fd_sc_hd__tapvpwrvgnd_1
X_2070_ clknet_4_0_0_clk_in _0334_ _0099_ vss vss vdd vdd d2.r_reg\[78\] sky130_fd_sc_hd__dfrtp_1
XFILLER_61_142 vss vss vdd vdd sky130_fd_sc_hd__decap_4
XFILLER_46_150 vss vss vdd vdd sky130_fd_sc_hd__decap_4
X_1021_ _0815_ vss vss vdd vdd _0816_ sky130_fd_sc_hd__buf_4
XFILLER_34_323 vss vss vdd vdd sky130_fd_sc_hd__decap_4
XFILLER_19_342 vss vss vdd vdd sky130_ef_sc_hd__decap_12
X_1854_ _0767_ vss vss vdd vdd _0130_ sky130_fd_sc_hd__inv_2
X_1785_ _0758_ vss vss vdd vdd _0073_ sky130_fd_sc_hd__inv_2
X_1923_ _0774_ vss vss vdd vdd _0192_ sky130_fd_sc_hd__inv_2
Xclkbuf_4_6_0_clk_in clknet_0_clk_in vss vss vdd vdd clknet_4_6_0_clk_in sky130_fd_sc_hd__clkbuf_8
X_2199_ clknet_1_0__leaf_ref_in _0461_ _0225_ vss vss vdd vdd d5.fll_core.tmp\[9\]
+ sky130_fd_sc_hd__dfrtp_2
X_1219_ d2.t_load\[54\] d2.r_reg\[54\] _0957_ vss vss vdd vdd _0959_ sky130_fd_sc_hd__mux2_1
XFILLER_52_197 vss vss vdd vdd sky130_fd_sc_hd__decap_6
XFILLER_40_304 vss vss vdd vdd sky130_fd_sc_hd__decap_4
XFILLER_25_356 vss vss vdd vdd sky130_fd_sc_hd__decap_4
XFILLER_4_238 vss vss vdd vdd sky130_fd_sc_hd__decap_4
XFILLER_45_51 vss vss vdd vdd sky130_fd_sc_hd__decap_4
XFILLER_43_175 vss vss vdd vdd sky130_fd_sc_hd__fill_1
XFILLER_28_194 vss vss vdd vdd sky130_fd_sc_hd__fill_2
XFILLER_16_334 vss vss vdd vdd sky130_fd_sc_hd__decap_4
XFILLER_16_389 vss vss vdd vdd sky130_fd_sc_hd__decap_4
XFILLER_31_337 vss vss vdd vdd sky130_fd_sc_hd__fill_2
X_1570_ d2.r_reg\[23\] d2.t_load\[22\] _0652_ vss vss vdd vdd _0659_ sky130_fd_sc_hd__mux2_1
XTAP_348 vss vdd sky130_fd_sc_hd__tapvpwrvgnd_1
XTAP_337 vss vdd sky130_fd_sc_hd__tapvpwrvgnd_1
XTAP_326 vss vdd sky130_fd_sc_hd__tapvpwrvgnd_1
XTAP_315 vss vdd sky130_fd_sc_hd__tapvpwrvgnd_1
XTAP_304 vss vdd sky130_fd_sc_hd__tapvpwrvgnd_1
XFILLER_66_234 vss vss vdd vdd sky130_fd_sc_hd__decap_8
X_2122_ clknet_4_11_0_clk_in _0385_ _0148_ vss vss vdd vdd d2.t_load\[30\] sky130_fd_sc_hd__dfrtp_1
X_2053_ clknet_4_8_0_clk_in _0317_ _0082_ vss vss vdd vdd d2.r_reg\[61\] sky130_fd_sc_hd__dfrtp_1
XTAP_359 vss vdd sky130_fd_sc_hd__tapvpwrvgnd_1
XFILLER_13_3 vss vss vdd vdd sky130_fd_sc_hd__fill_2
X_1004_ _0797_ _0798_ vss vss vdd vdd _0799_ sky130_fd_sc_hd__nand2_1
XFILLER_34_197 vss vss vdd vdd sky130_fd_sc_hd__fill_2
X_1768_ _0755_ vss vss vdd vdd _0059_ sky130_fd_sc_hd__inv_2
X_1837_ _0765_ vss vss vdd vdd _0353_ sky130_fd_sc_hd__clkbuf_1
X_1906_ _0772_ vss vss vdd vdd _0177_ sky130_fd_sc_hd__inv_2
X_1699_ _0736_ _0737_ vss vss vdd vdd _0007_ sky130_fd_sc_hd__nor2_1
XFILLER_25_131 vss vss vdd vdd sky130_fd_sc_hd__fill_1
XFILLER_13_326 vss vss vdd vdd sky130_fd_sc_hd__decap_4
XFILLER_13_337 vss vss vdd vdd sky130_fd_sc_hd__fill_2
XFILLER_15_54 vss vss vdd vdd sky130_fd_sc_hd__fill_2
Xoutput7 net7 vss vss vdd vdd corner[2] sky130_fd_sc_hd__clkbuf_1
Xoutput20 net20 vss vss vdd vdd slope_ctrl[2] sky130_fd_sc_hd__clkbuf_1
Xoutput42 net42 vss vss vdd vdd vbias3[5] sky130_fd_sc_hd__clkbuf_1
XFILLER_31_86 vss vss vdd vdd sky130_fd_sc_hd__decap_4
Xoutput31 net31 vss vss vdd vdd vbias2[2] sky130_fd_sc_hd__clkbuf_1
XFILLER_56_61 vss vss vdd vdd sky130_fd_sc_hd__fill_1
XFILLER_0_274 vss vss vdd vdd sky130_fd_sc_hd__decap_6
XFILLER_16_153 vss vss vdd vdd sky130_ef_sc_hd__decap_12
XFILLER_16_197 vss vss vdd vdd sky130_ef_sc_hd__decap_12
X_1622_ _0694_ d2.r_reg\[6\] _0684_ vss vss vdd vdd _0695_ sky130_fd_sc_hd__mux2_1
X_1553_ _0647_ vss vss vdd vdd _0284_ sky130_fd_sc_hd__clkbuf_1
X_1484_ d2.r_reg\[50\] d2.t_load\[49\] _0586_ vss vss vdd vdd _0600_ sky130_fd_sc_hd__mux2_1
XTAP_178 vss vdd sky130_fd_sc_hd__tapvpwrvgnd_1
XTAP_167 vss vdd sky130_fd_sc_hd__tapvpwrvgnd_1
XTAP_156 vss vdd sky130_fd_sc_hd__tapvpwrvgnd_1
XTAP_145 vss vdd sky130_fd_sc_hd__tapvpwrvgnd_1
XTAP_134 vss vdd sky130_fd_sc_hd__tapvpwrvgnd_1
XTAP_189 vss vdd sky130_fd_sc_hd__tapvpwrvgnd_1
X_2036_ clknet_4_11_0_clk_in _0300_ _0065_ vss vss vdd vdd d2.r_reg\[44\] sky130_fd_sc_hd__dfrtp_1
X_2105_ clknet_4_13_0_clk_in _0368_ _0131_ vss vss vdd vdd d2.t_load\[13\] sky130_fd_sc_hd__dfrtp_1
XFILLER_53_281 vss vss vdd vdd sky130_fd_sc_hd__decap_8
XFILLER_45_248 vss vss vdd vdd sky130_fd_sc_hd__decap_4
XFILLER_13_145 vss vss vdd vdd sky130_fd_sc_hd__fill_1
XFILLER_42_85 vss vss vdd vdd sky130_fd_sc_hd__decap_6
XFILLER_42_41 vss vss vdd vdd sky130_ef_sc_hd__decap_12
XFILLER_5_322 vss vss vdd vdd sky130_fd_sc_hd__decap_4
XFILLER_3_57 vss vss vdd vdd sky130_ef_sc_hd__decap_12
XFILLER_5_366 vss vss vdd vdd sky130_ef_sc_hd__decap_12
XFILLER_51_229 vss vss vdd vdd sky130_fd_sc_hd__fill_1
XFILLER_44_281 vss vss vdd vdd sky130_fd_sc_hd__decap_8
X_1536_ _0635_ d2.r_reg\[33\] _0618_ vss vss vdd vdd _0636_ sky130_fd_sc_hd__mux2_1
X_1605_ d2.r_reg\[12\] d2.t_load\[11\] _0674_ vss vss vdd vdd _0683_ sky130_fd_sc_hd__mux2_1
XFILLER_8_171 vss vss vdd vdd sky130_ef_sc_hd__decap_12
X_1467_ _0588_ vss vss vdd vdd _0311_ sky130_fd_sc_hd__clkbuf_1
X_1398_ _0540_ d2.r_reg\[76\] _0530_ vss vss vdd vdd _0541_ sky130_fd_sc_hd__mux2_1
X_2019_ clknet_4_14_0_clk_in _0283_ _0048_ vss vss vdd vdd d2.r_reg\[27\] sky130_fd_sc_hd__dfrtp_1
XFILLER_35_281 vss vss vdd vdd sky130_fd_sc_hd__fill_2
XFILLER_27_237 vss vss vdd vdd sky130_fd_sc_hd__decap_4
XFILLER_6_119 vss vss vdd vdd sky130_ef_sc_hd__decap_12
XFILLER_10_126 vss vss vdd vdd sky130_fd_sc_hd__decap_8
XFILLER_58_351 vss vss vdd vdd sky130_fd_sc_hd__decap_4
XFILLER_33_218 vss vss vdd vdd sky130_fd_sc_hd__decap_6
XFILLER_18_237 vss vss vdd vdd sky130_fd_sc_hd__decap_4
XFILLER_53_95 vss vss vdd vdd sky130_fd_sc_hd__decap_4
XFILLER_53_51 vss vss vdd vdd sky130_fd_sc_hd__decap_4
X_1252_ d2.t_load\[38\] d2.r_reg\[38\] _0968_ vss vss vdd vdd _0976_ sky130_fd_sc_hd__mux2_1
X_1321_ _0489_ vss vss vdd vdd _0361_ sky130_fd_sc_hd__clkbuf_1
Xwrapper_45 vss vss vdd vdd wrapper_45/HI dac[8] sky130_fd_sc_hd__conb_1
XFILLER_64_365 vss vss vdd vdd sky130_ef_sc_hd__decap_12
XFILLER_64_354 vss vss vdd vdd sky130_fd_sc_hd__decap_8
XFILLER_17_281 vss vss vdd vdd sky130_fd_sc_hd__fill_2
XFILLER_17_292 vss vss vdd vdd sky130_fd_sc_hd__fill_1
X_1183_ _0939_ vss vss vdd vdd _0426_ sky130_fd_sc_hd__clkbuf_1
XFILLER_58_29 vss vss vdd vdd sky130_ef_sc_hd__decap_12
X_1519_ d2.r_reg\[39\] d2.t_load\[38\] _0608_ vss vss vdd vdd _0624_ sky130_fd_sc_hd__mux2_1
XFILLER_23_54 vss vss vdd vdd sky130_fd_sc_hd__fill_2
XFILLER_2_188 vss vss vdd vdd sky130_fd_sc_hd__decap_8
XFILLER_2_133 vss vss vdd vdd sky130_fd_sc_hd__decap_6
XFILLER_61_335 vss vss vdd vdd sky130_fd_sc_hd__fill_1
XFILLER_61_324 vss vss vdd vdd sky130_fd_sc_hd__decap_4
XFILLER_46_365 vss vss vdd vdd sky130_fd_sc_hd__decap_4
X_1870_ _0769_ vss vss vdd vdd _0144_ sky130_fd_sc_hd__inv_2
XFILLER_43_3 vss vss vdd vdd sky130_ef_sc_hd__decap_12
XFILLER_56_129 vss vss vdd vdd sky130_fd_sc_hd__decap_6
X_1235_ d2.t_load\[46\] d2.r_reg\[46\] _0957_ vss vss vdd vdd _0967_ sky130_fd_sc_hd__mux2_1
X_1304_ d2.t_load\[14\] d2.r_reg\[14\] _0479_ vss vss vdd vdd _0481_ sky130_fd_sc_hd__mux2_1
XFILLER_37_332 vss vss vdd vdd sky130_fd_sc_hd__decap_4
X_1166_ _0930_ vss vss vdd vdd _0434_ sky130_fd_sc_hd__clkbuf_1
X_1097_ d5.fll_core.tmp\[6\] _0817_ vss vss vdd vdd _0887_ sky130_fd_sc_hd__and2_1
XFILLER_20_221 vss vss vdd vdd sky130_ef_sc_hd__decap_12
X_1999_ clknet_4_6_0_clk_in _0263_ _0028_ vss vss vdd vdd d2.r_reg\[7\] sky130_fd_sc_hd__dfrtp_1
XFILLER_28_387 vss vss vdd vdd sky130_fd_sc_hd__decap_6
XFILLER_28_365 vss vss vdd vdd sky130_fd_sc_hd__fill_2
XFILLER_50_41 vss vss vdd vdd sky130_ef_sc_hd__decap_12
XFILLER_7_225 vss vss vdd vdd sky130_ef_sc_hd__decap_12
XTAP_519 vss vdd sky130_fd_sc_hd__tapvpwrvgnd_1
XTAP_508 vss vdd sky130_fd_sc_hd__tapvpwrvgnd_1
XFILLER_50_85 vss vss vdd vdd sky130_fd_sc_hd__decap_6
X_1020_ _0810_ _0814_ vss vss vdd vdd _0815_ sky130_fd_sc_hd__nor2_1
XFILLER_19_310 vss vss vdd vdd sky130_fd_sc_hd__decap_4
XFILLER_19_354 vss vss vdd vdd sky130_ef_sc_hd__decap_12
XFILLER_46_195 vss vss vdd vdd sky130_fd_sc_hd__fill_1
XFILLER_46_173 vss vss vdd vdd sky130_fd_sc_hd__fill_1
XFILLER_34_313 vss vss vdd vdd sky130_fd_sc_hd__fill_1
X_1922_ _0774_ vss vss vdd vdd _0191_ sky130_fd_sc_hd__inv_2
X_1784_ _0758_ vss vss vdd vdd _0072_ sky130_fd_sc_hd__inv_2
X_1853_ _0767_ vss vss vdd vdd _0129_ sky130_fd_sc_hd__inv_2
XFILLER_52_132 vss vss vdd vdd sky130_fd_sc_hd__decap_8
X_2198_ clknet_1_0__leaf_ref_in _0460_ _0224_ vss vss vdd vdd d5.fll_core.tmp\[8\]
+ sky130_fd_sc_hd__dfrtp_2
X_1218_ _0958_ vss vss vdd vdd _0410_ sky130_fd_sc_hd__clkbuf_1
X_1149_ _0921_ vss vss vdd vdd _0442_ sky130_fd_sc_hd__clkbuf_1
XFILLER_33_390 vss vss vdd vdd sky130_fd_sc_hd__fill_2
XFILLER_45_96 vss vss vdd vdd sky130_fd_sc_hd__decap_4
XFILLER_43_198 vss vss vdd vdd sky130_fd_sc_hd__decap_4
XFILLER_43_110 vss vss vdd vdd sky130_fd_sc_hd__fill_2
XFILLER_28_184 vss vss vdd vdd sky130_fd_sc_hd__decap_4
XFILLER_28_173 vss vss vdd vdd sky130_fd_sc_hd__decap_8
XFILLER_16_313 vss vss vdd vdd sky130_fd_sc_hd__fill_1
XFILLER_61_95 vss vss vdd vdd sky130_fd_sc_hd__fill_1
XFILLER_61_84 vss vss vdd vdd sky130_fd_sc_hd__decap_4
XFILLER_61_51 vss vss vdd vdd sky130_fd_sc_hd__decap_4
XTAP_349 vss vdd sky130_fd_sc_hd__tapvpwrvgnd_1
XTAP_338 vss vdd sky130_fd_sc_hd__tapvpwrvgnd_1
XTAP_327 vss vdd sky130_fd_sc_hd__tapvpwrvgnd_1
XTAP_316 vss vdd sky130_fd_sc_hd__tapvpwrvgnd_1
XFILLER_3_294 vss vss vdd vdd sky130_fd_sc_hd__fill_1
XTAP_305 vss vdd sky130_fd_sc_hd__tapvpwrvgnd_1
X_2121_ clknet_4_14_0_clk_in _0384_ _0147_ vss vss vdd vdd d2.t_load\[29\] sky130_fd_sc_hd__dfrtp_1
X_1003_ d2.t_load\[23\] d5.fll_core.counter1.count\[3\] vss vss vdd vdd _0798_ sky130_fd_sc_hd__or2b_1
X_2052_ clknet_4_8_0_clk_in _0316_ _0081_ vss vss vdd vdd d2.r_reg\[60\] sky130_fd_sc_hd__dfrtp_1
XFILLER_30_371 vss vss vdd vdd sky130_fd_sc_hd__decap_4
X_1905_ _0772_ vss vss vdd vdd _0176_ sky130_fd_sc_hd__inv_2
XFILLER_22_349 vss vss vdd vdd sky130_fd_sc_hd__decap_4
X_1698_ d5.fll_core.counter1.count\[6\] _0734_ vss vss vdd vdd _0737_ sky130_fd_sc_hd__nor2_1
X_1767_ _0755_ vss vss vdd vdd _0058_ sky130_fd_sc_hd__inv_2
X_1836_ d5.fll_core.corner_tmp\[1\] _0763_ vss vss vdd vdd _0765_ sky130_fd_sc_hd__and2_1
XFILLER_66_29 vss vss vdd vdd sky130_fd_sc_hd__decap_8
XFILLER_25_165 vss vss vdd vdd sky130_fd_sc_hd__decap_3
XFILLER_25_110 vss vss vdd vdd sky130_fd_sc_hd__fill_2
XFILLER_31_54 vss vss vdd vdd sky130_fd_sc_hd__fill_2
Xoutput10 net10 vss vss vdd vdd dac[2] sky130_fd_sc_hd__clkbuf_1
Xoutput8 net8 vss vss vdd vdd dac[0] sky130_fd_sc_hd__clkbuf_1
Xoutput43 net43 vss vss vdd vdd vbias3[6] sky130_fd_sc_hd__clkbuf_1
XFILLER_0_253 vss vss vdd vdd sky130_fd_sc_hd__fill_2
Xoutput21 net21 vss vss vdd vdd vbias1[0] sky130_fd_sc_hd__clkbuf_1
Xoutput32 net32 vss vss vdd vdd vbias2[3] sky130_fd_sc_hd__clkbuf_1
XFILLER_63_205 vss vss vdd vdd sky130_fd_sc_hd__decap_4
XFILLER_16_121 vss vss vdd vdd sky130_fd_sc_hd__decap_6
XFILLER_31_124 vss vss vdd vdd sky130_fd_sc_hd__decap_8
XFILLER_31_113 vss vss vdd vdd sky130_fd_sc_hd__fill_2
XFILLER_12_360 vss vss vdd vdd sky130_fd_sc_hd__decap_4
XFILLER_16_165 vss vss vdd vdd sky130_ef_sc_hd__decap_12
X_1552_ _0646_ d2.r_reg\[28\] _0640_ vss vss vdd vdd _0647_ sky130_fd_sc_hd__mux2_1
X_1621_ d2.r_reg\[7\] d2.t_load\[6\] _0674_ vss vss vdd vdd _0694_ sky130_fd_sc_hd__mux2_1
XFILLER_39_257 vss vss vdd vdd sky130_fd_sc_hd__decap_8
X_1483_ _0599_ vss vss vdd vdd _0306_ sky130_fd_sc_hd__clkbuf_1
X_2104_ clknet_4_13_0_clk_in _0367_ _0130_ vss vss vdd vdd d2.t_load\[12\] sky130_fd_sc_hd__dfrtp_1
XTAP_179 vss vdd sky130_fd_sc_hd__tapvpwrvgnd_1
XTAP_168 vss vdd sky130_fd_sc_hd__tapvpwrvgnd_1
XTAP_157 vss vdd sky130_fd_sc_hd__tapvpwrvgnd_1
XTAP_146 vss vdd sky130_fd_sc_hd__tapvpwrvgnd_1
XTAP_135 vss vdd sky130_fd_sc_hd__tapvpwrvgnd_1
XFILLER_54_205 vss vss vdd vdd sky130_fd_sc_hd__decap_4
X_2035_ clknet_4_9_0_clk_in _0299_ _0064_ vss vss vdd vdd d2.r_reg\[43\] sky130_fd_sc_hd__dfrtp_1
XFILLER_39_279 vss vss vdd vdd sky130_fd_sc_hd__fill_1
XFILLER_22_157 vss vss vdd vdd sky130_fd_sc_hd__decap_4
X_1819_ _0761_ vss vss vdd vdd _0104_ sky130_fd_sc_hd__inv_2
XFILLER_60_208 vss vss vdd vdd sky130_fd_sc_hd__decap_4
XFILLER_42_53 vss vss vdd vdd sky130_ef_sc_hd__decap_12
XFILLER_9_128 vss vss vdd vdd sky130_fd_sc_hd__decap_4
XFILLER_13_113 vss vss vdd vdd sky130_fd_sc_hd__fill_2
XFILLER_5_378 vss vss vdd vdd sky130_ef_sc_hd__decap_12
XFILLER_3_69 vss vss vdd vdd sky130_ef_sc_hd__decap_12
X_1535_ d2.r_reg\[34\] d2.t_load\[33\] _0630_ vss vss vdd vdd _0635_ sky130_fd_sc_hd__mux2_1
X_1604_ _0682_ vss vss vdd vdd _0268_ sky130_fd_sc_hd__clkbuf_1
XFILLER_8_183 vss vss vdd vdd sky130_ef_sc_hd__decap_12
XFILLER_27_205 vss vss vdd vdd sky130_fd_sc_hd__decap_8
X_1466_ _0587_ d2.r_reg\[55\] _0574_ vss vss vdd vdd _0588_ sky130_fd_sc_hd__mux2_1
X_1397_ d2.r_reg\[77\] net26 _0520_ vss vss vdd vdd _0540_ sky130_fd_sc_hd__mux2_1
X_2018_ clknet_4_14_0_clk_in _0282_ _0047_ vss vss vdd vdd d2.r_reg\[26\] sky130_fd_sc_hd__dfrtp_1
XFILLER_50_285 vss vss vdd vdd sky130_fd_sc_hd__decap_4
XFILLER_35_260 vss vss vdd vdd sky130_fd_sc_hd__decap_4
XFILLER_10_105 vss vss vdd vdd sky130_fd_sc_hd__fill_1
XFILLER_50_296 vss vss vdd vdd sky130_fd_sc_hd__fill_1
XFILLER_10_138 vss vss vdd vdd sky130_fd_sc_hd__fill_2
XFILLER_41_241 vss vss vdd vdd sky130_fd_sc_hd__decap_4
X_1320_ d2.t_load\[6\] d2.r_reg\[6\] _0479_ vss vss vdd vdd _0489_ sky130_fd_sc_hd__mux2_1
XFILLER_5_131 vss vss vdd vdd sky130_fd_sc_hd__decap_4
X_1251_ _0975_ vss vss vdd vdd _0394_ sky130_fd_sc_hd__clkbuf_1
X_1182_ net21 d2.r_reg\[71\] _0934_ vss vss vdd vdd _0939_ sky130_fd_sc_hd__mux2_1
Xwrapper_46 vss vss vdd vdd wrapper_46/HI dac[9] sky130_fd_sc_hd__conb_1
XFILLER_64_377 vss vss vdd vdd sky130_ef_sc_hd__decap_12
XFILLER_24_219 vss vss vdd vdd sky130_fd_sc_hd__decap_4
X_1518_ _0623_ vss vss vdd vdd _0295_ sky130_fd_sc_hd__clkbuf_1
X_1449_ d2.r_reg\[61\] d2.t_load\[60\] _0564_ vss vss vdd vdd _0576_ sky130_fd_sc_hd__mux2_1
XFILLER_55_366 vss vss vdd vdd sky130_ef_sc_hd__decap_12
XFILLER_23_274 vss vss vdd vdd sky130_fd_sc_hd__decap_6
XFILLER_3_3 vss vss vdd vdd sky130_ef_sc_hd__decap_12
XFILLER_2_145 vss vss vdd vdd sky130_fd_sc_hd__fill_1
XFILLER_48_85 vss vss vdd vdd sky130_fd_sc_hd__fill_2
XFILLER_48_41 vss vss vdd vdd sky130_ef_sc_hd__decap_12
XFILLER_0_37 vss vss vdd vdd sky130_ef_sc_hd__decap_12
XFILLER_9_57 vss vss vdd vdd sky130_ef_sc_hd__decap_12
X_1303_ _0480_ vss vss vdd vdd _0370_ sky130_fd_sc_hd__clkbuf_1
XFILLER_36_3 vss vss vdd vdd sky130_ef_sc_hd__decap_12
XFILLER_64_163 vss vss vdd vdd sky130_fd_sc_hd__decap_4
XFILLER_64_141 vss vss vdd vdd sky130_fd_sc_hd__fill_2
XFILLER_52_314 vss vss vdd vdd sky130_fd_sc_hd__decap_4
X_1234_ _0966_ vss vss vdd vdd _0402_ sky130_fd_sc_hd__clkbuf_1
X_1096_ _0825_ _0827_ _0828_ _0831_ _0817_ vss vss vdd vdd _0886_ sky130_fd_sc_hd__a32o_1
X_1165_ net29 d2.r_reg\[79\] _0923_ vss vss vdd vdd _0930_ sky130_fd_sc_hd__mux2_1
XFILLER_60_391 vss vss vdd vdd sky130_fd_sc_hd__fill_2
XFILLER_52_347 vss vss vdd vdd sky130_fd_sc_hd__decap_4
XFILLER_20_233 vss vss vdd vdd sky130_fd_sc_hd__fill_1
X_1998_ clknet_4_6_0_clk_in _0262_ _0027_ vss vss vdd vdd d2.r_reg\[6\] sky130_fd_sc_hd__dfrtp_1
XFILLER_20_299 vss vss vdd vdd sky130_fd_sc_hd__decap_4
XFILLER_43_303 vss vss vdd vdd sky130_fd_sc_hd__decap_8
XFILLER_50_53 vss vss vdd vdd sky130_ef_sc_hd__decap_12
XFILLER_34_76 vss vss vdd vdd sky130_fd_sc_hd__decap_8
XFILLER_7_237 vss vss vdd vdd sky130_ef_sc_hd__decap_12
XFILLER_59_73 vss vss vdd vdd sky130_fd_sc_hd__decap_4
XFILLER_59_51 vss vss vdd vdd sky130_fd_sc_hd__decap_4
XTAP_509 vss vdd sky130_fd_sc_hd__tapvpwrvgnd_1
XFILLER_46_141 vss vss vdd vdd sky130_fd_sc_hd__decap_6
XFILLER_19_366 vss vss vdd vdd sky130_ef_sc_hd__decap_12
XFILLER_61_177 vss vss vdd vdd sky130_fd_sc_hd__decap_4
XFILLER_61_166 vss vss vdd vdd sky130_fd_sc_hd__fill_2
XFILLER_61_111 vss vss vdd vdd sky130_fd_sc_hd__fill_1
XFILLER_34_336 vss vss vdd vdd sky130_fd_sc_hd__decap_6
X_1852_ _0767_ vss vss vdd vdd _0128_ sky130_fd_sc_hd__inv_2
X_1921_ _0750_ vss vss vdd vdd _0774_ sky130_fd_sc_hd__buf_4
X_1783_ _0758_ vss vss vdd vdd _0071_ sky130_fd_sc_hd__inv_2
XFILLER_6_281 vss vss vdd vdd sky130_fd_sc_hd__decap_4
XFILLER_52_122 vss vss vdd vdd sky130_fd_sc_hd__decap_4
XFILLER_37_174 vss vss vdd vdd sky130_fd_sc_hd__decap_8
X_2197_ clknet_1_0__leaf_ref_in _0459_ _0223_ vss vss vdd vdd d5.fll_core.tmp\[7\]
+ sky130_fd_sc_hd__dfrtp_2
X_1217_ d2.t_load\[55\] d2.r_reg\[55\] _0957_ vss vss vdd vdd _0958_ sky130_fd_sc_hd__mux2_1
X_1079_ d2.t_load\[4\] d5.fll_core.counter2.count\[4\] vss vss vdd vdd _0872_ sky130_fd_sc_hd__xor2_1
X_1148_ net37 d2.r_reg\[87\] _0912_ vss vss vdd vdd _0921_ sky130_fd_sc_hd__mux2_1
XFILLER_52_188 vss vss vdd vdd sky130_fd_sc_hd__decap_8
XFILLER_28_152 vss vss vdd vdd sky130_fd_sc_hd__decap_4
XFILLER_28_141 vss vss vdd vdd sky130_fd_sc_hd__fill_2
XFILLER_45_75 vss vss vdd vdd sky130_fd_sc_hd__decap_4
XFILLER_61_63 vss vss vdd vdd sky130_fd_sc_hd__fill_1
XFILLER_66_225 vss vss vdd vdd sky130_fd_sc_hd__decap_6