*SPEF "ieee 1481-1999"
*DESIGN "fll_wrapper_2"
*DATE "11:11:11 Fri 11 11, 1111"
*VENDOR "OpenRCX"
*PROGRAM "Parallel Extraction"
*VERSION "1.0"
*DESIGN_FLOW "NAME_SCOPE LOCAL" "PIN_CAP NONE"
*DIVIDER /
*DELIMITER :
*BUS_DELIMITER []
*T_UNIT 1 NS
*C_UNIT 1 PF
*R_UNIT 1 OHM
*L_UNIT 1 HENRY

*NAME_MAP
*3 buffer_val[0]
*4 buffer_val[1]
*5 buffer_val[2]
*6 buffer_val[3]
*7 buffer_val[4]
*8 buffer_val[5]
*9 buffer_val[6]
*10 buffer_val[7]
*11 buffer_val[8]
*12 buffer_val[9]
*13 clk
*14 corner[0]
*15 corner[1]
*16 corner[2]
*17 dac[0]
*18 dac[1]
*19 dac[2]
*20 dac[3]
*21 dac[4]
*22 dac[5]
*23 dac[6]
*24 dac[7]
*25 dac[8]
*26 dac[9]
*27 lock
*28 lower[0]
*29 lower[1]
*30 lower[2]
*31 lower[3]
*32 lower[4]
*33 lower[5]
*34 lower[6]
*35 lower[7]
*36 lower[8]
*37 lower[9]
*38 ref
*39 ref_time[0]
*40 ref_time[1]
*41 ref_time[2]
*42 ref_time[3]
*43 ref_time[4]
*44 ref_time[5]
*45 ref_time[6]
*46 ref_time[7]
*47 ref_time[8]
*48 ref_time[9]
*49 reset
*50 test
*51 test_val[0]
*52 test_val[1]
*53 test_val[2]
*54 test_val[3]
*55 test_val[4]
*56 test_val[5]
*57 test_val[6]
*58 test_val[7]
*59 test_val[8]
*60 test_val[9]
*61 upper[0]
*62 upper[1]
*63 upper[2]
*64 upper[3]
*65 upper[4]
*66 upper[5]
*67 upper[6]
*68 upper[7]
*69 upper[8]
*70 upper[9]
*71 _000_
*72 _001_
*73 _002_
*74 _003_
*75 _004_
*76 _005_
*77 _006_
*78 _007_
*79 _008_
*80 _009_
*81 _010_
*82 _011_
*83 _012_
*84 _013_
*85 _014_
*86 _015_
*87 _016_
*88 _017_
*89 _018_
*90 _019_
*91 _020_
*92 _021_
*93 _022_
*94 _023_
*95 _024_
*96 _025_
*97 _026_
*98 _027_
*99 _028_
*100 _029_
*101 _030_
*102 _031_
*103 _032_
*104 _033_
*105 _034_
*106 _035_
*107 _036_
*108 _037_
*109 _038_
*110 _039_
*111 _040_
*112 _041_
*113 _042_
*114 _043_
*115 _044_
*116 _045_
*117 _046_
*118 _047_
*119 _048_
*120 _049_
*121 _050_
*122 _051_
*123 _052_
*124 _053_
*125 _054_
*126 _055_
*127 _056_
*128 _057_
*129 _058_
*130 _059_
*131 _060_
*132 _061_
*133 _062_
*134 _063_
*135 _064_
*136 _065_
*137 _066_
*138 _067_
*139 _068_
*140 _069_
*141 _070_
*142 _071_
*143 _072_
*144 _073_
*145 _074_
*146 _075_
*147 _076_
*148 _077_
*149 _078_
*150 _079_
*151 _080_
*152 _081_
*153 _082_
*154 _083_
*155 _084_
*156 _085_
*157 _086_
*158 _087_
*159 _088_
*160 _089_
*161 _090_
*162 _091_
*163 _092_
*164 _093_
*165 _094_
*166 _095_
*167 _096_
*168 _097_
*169 _098_
*170 _099_
*171 _100_
*172 _101_
*173 _102_
*174 _103_
*175 _104_
*176 _105_
*177 _106_
*178 _107_
*179 _108_
*180 _109_
*181 _110_
*182 _111_
*183 _112_
*184 _113_
*185 _114_
*186 _115_
*187 _116_
*188 _117_
*189 _118_
*190 _119_
*191 _120_
*192 _121_
*193 _122_
*194 _123_
*195 _124_
*196 _125_
*197 _126_
*198 _127_
*199 _128_
*200 _129_
*201 _130_
*202 _131_
*203 _132_
*204 _133_
*205 _134_
*206 _135_
*207 _136_
*208 _137_
*209 _138_
*210 _139_
*211 _140_
*212 _141_
*213 _142_
*214 _143_
*215 _144_
*216 _145_
*217 _146_
*218 _147_
*219 _148_
*220 _149_
*221 _150_
*222 _151_
*223 _152_
*224 _153_
*225 _154_
*226 _155_
*227 _156_
*228 _157_
*229 _158_
*230 _159_
*231 _160_
*232 _161_
*233 _162_
*234 _163_
*235 _164_
*236 _165_
*237 _166_
*238 _167_
*239 _168_
*240 _169_
*241 _170_
*242 _171_
*243 _172_
*244 _173_
*245 _174_
*246 _175_
*247 _176_
*248 _177_
*249 _178_
*250 _179_
*251 _180_
*252 _181_
*253 _182_
*254 _183_
*255 _184_
*256 _185_
*257 _186_
*258 _187_
*259 _188_
*260 _189_
*261 _190_
*262 _191_
*263 _192_
*264 _193_
*265 _194_
*266 _195_
*267 _196_
*268 _197_
*269 _198_
*270 _199_
*271 _200_
*272 _201_
*273 _202_
*274 _203_
*275 _204_
*276 _205_
*277 _206_
*278 _207_
*279 _208_
*280 _209_
*281 _210_
*282 _211_
*283 _212_
*284 _213_
*285 _214_
*286 _215_
*287 _216_
*288 _217_
*289 _218_
*290 _219_
*291 _220_
*292 _221_
*293 _222_
*294 _223_
*295 _224_
*296 _225_
*297 _226_
*298 _227_
*299 _228_
*300 _229_
*301 _230_
*302 _231_
*303 _232_
*304 _233_
*305 _234_
*306 _235_
*307 _236_
*308 _237_
*309 _238_
*310 _239_
*311 _240_
*312 _241_
*313 _242_
*314 _243_
*315 _244_
*316 _245_
*317 _246_
*318 _247_
*319 _248_
*320 _249_
*321 _250_
*322 _251_
*323 _252_
*324 _253_
*325 _254_
*326 _255_
*327 _256_
*328 _257_
*329 _258_
*330 _259_
*331 _260_
*332 _261_
*333 _262_
*334 _263_
*335 _264_
*336 _265_
*337 _266_
*338 _267_
*339 _268_
*340 _269_
*341 _270_
*342 _271_
*343 _272_
*344 _273_
*345 clknet_0_clk
*346 clknet_1_0_0_clk
*347 clknet_1_1_0_clk
*348 fll_core\.counter1\.count\[0\]
*349 fll_core\.counter1\.count\[1\]
*350 fll_core\.counter1\.count\[2\]
*351 fll_core\.counter1\.count\[3\]
*352 fll_core\.counter1\.count\[4\]
*353 fll_core\.counter1\.count\[5\]
*354 fll_core\.counter1\.count\[6\]
*355 fll_core\.counter1\.count\[7\]
*356 fll_core\.counter1\.count\[8\]
*357 fll_core\.counter1\.count\[9\]
*358 fll_core\.counter2\.count\[0\]
*359 fll_core\.counter2\.count\[1\]
*360 fll_core\.counter2\.count\[2\]
*361 fll_core\.counter2\.count\[3\]
*362 fll_core\.counter2\.count\[4\]
*363 fll_core\.counter2\.count\[5\]
*364 fll_core\.counter2\.count\[6\]
*365 fll_core\.counter2\.count\[7\]
*366 fll_core\.counter2\.count\[8\]
*367 fll_core\.counter2\.count\[9\]
*368 fll_core\.counter_reset
*369 fll_core\.strobe
*370 fll_core\.tmp\[0\]
*371 fll_core\.tmp\[1\]
*372 fll_core\.tmp\[2\]
*373 fll_core\.tmp\[3\]
*374 fll_core\.tmp\[4\]
*375 fll_core\.tmp\[5\]
*376 fll_core\.tmp\[6\]
*377 fll_core\.tmp\[7\]
*378 fll_core\.tmp\[8\]
*379 fll_core\.tmp\[9\]
*380 mux01\.out\[0\]
*381 mux01\.out\[1\]
*382 mux01\.out\[2\]
*383 mux01\.out\[3\]
*384 mux01\.out\[4\]
*385 mux01\.out\[5\]
*386 mux01\.out\[6\]
*387 mux01\.out\[7\]
*388 mux01\.out\[8\]
*389 mux01\.out\[9\]
*390 net1
*391 net10
*392 net11
*393 net12
*394 net13
*395 net14
*396 net15
*397 net16
*398 net17
*399 net18
*400 net19
*401 net2
*402 net20
*403 net21
*404 net22
*405 net23
*406 net24
*407 net25
*408 net26
*409 net27
*410 net28
*411 net29
*412 net3
*413 net30
*414 net31
*415 net32
*416 net33
*417 net34
*418 net35
*419 net36
*420 net37
*421 net38
*422 net39
*423 net4
*424 net40
*425 net41
*426 net42
*427 net43
*428 net44
*429 net45
*430 net46
*431 net47
*432 net48
*433 net49
*434 net5
*435 net50
*436 net51
*437 net52
*438 net53
*439 net54
*440 net55
*441 net56
*442 net57
*443 net58
*444 net59
*445 net6
*446 net60
*447 net61
*448 net62
*449 net63
*450 net64
*451 net65
*452 net66
*453 net67
*454 net7
*455 net8
*456 net9
*457 FILLER_0_104
*458 FILLER_0_113
*459 FILLER_0_118
*460 FILLER_0_134
*461 FILLER_0_14
*462 FILLER_0_141
*463 FILLER_0_149
*464 FILLER_0_161
*465 FILLER_0_167
*466 FILLER_0_173
*467 FILLER_0_181
*468 FILLER_0_189
*469 FILLER_0_193
*470 FILLER_0_22
*471 FILLER_0_29
*472 FILLER_0_34
*473 FILLER_0_42
*474 FILLER_0_46
*475 FILLER_0_51
*476 FILLER_0_55
*477 FILLER_0_57
*478 FILLER_0_6
*479 FILLER_0_67
*480 FILLER_0_75
*481 FILLER_0_83
*482 FILLER_0_85
*483 FILLER_0_90
*484 FILLER_10_100
*485 FILLER_10_106
*486 FILLER_10_11
*487 FILLER_10_116
*488 FILLER_10_136
*489 FILLER_10_144
*490 FILLER_10_156
*491 FILLER_10_168
*492 FILLER_10_180
*493 FILLER_10_19
*494 FILLER_10_190
*495 FILLER_10_24
*496 FILLER_10_29
*497 FILLER_10_3
*498 FILLER_10_35
*499 FILLER_10_46
*500 FILLER_10_59
*501 FILLER_10_71
*502 FILLER_10_80
*503 FILLER_10_89
*504 FILLER_11_108
*505 FILLER_11_123
*506 FILLER_11_130
*507 FILLER_11_137
*508 FILLER_11_144
*509 FILLER_11_15
*510 FILLER_11_151
*511 FILLER_11_163
*512 FILLER_11_167
*513 FILLER_11_169
*514 FILLER_11_181
*515 FILLER_11_185
*516 FILLER_11_189
*517 FILLER_11_19
*518 FILLER_11_193
*519 FILLER_11_27
*520 FILLER_11_3
*521 FILLER_11_40
*522 FILLER_11_49
*523 FILLER_11_55
*524 FILLER_11_61
*525 FILLER_11_74
*526 FILLER_11_81
*527 FILLER_11_94
*528 FILLER_12_105
*529 FILLER_12_113
*530 FILLER_12_13
*531 FILLER_12_134
*532 FILLER_12_144
*533 FILLER_12_156
*534 FILLER_12_168
*535 FILLER_12_17
*536 FILLER_12_180
*537 FILLER_12_190
*538 FILLER_12_24
*539 FILLER_12_29
*540 FILLER_12_55
*541 FILLER_12_69
*542 FILLER_12_7
*543 FILLER_12_80
*544 FILLER_13_106
*545 FILLER_13_120
*546 FILLER_13_128
*547 FILLER_13_135
*548 FILLER_13_142
*549 FILLER_13_15
*550 FILLER_13_154
*551 FILLER_13_166
*552 FILLER_13_169
*553 FILLER_13_181
*554 FILLER_13_19
*555 FILLER_13_193
*556 FILLER_13_26
*557 FILLER_13_3
*558 FILLER_13_34
*559 FILLER_13_44
*560 FILLER_13_52
*561 FILLER_13_60
*562 FILLER_13_73
*563 FILLER_13_84
*564 FILLER_13_92
*565 FILLER_14_108
*566 FILLER_14_132
*567 FILLER_14_144
*568 FILLER_14_15
*569 FILLER_14_151
*570 FILLER_14_163
*571 FILLER_14_175
*572 FILLER_14_187
*573 FILLER_14_193
*574 FILLER_14_27
*575 FILLER_14_29
*576 FILLER_14_3
*577 FILLER_14_34
*578 FILLER_14_58
*579 FILLER_14_66
*580 FILLER_14_75
*581 FILLER_14_83
*582 FILLER_14_85
*583 FILLER_14_95
*584 FILLER_15_108
*585 FILLER_15_122
*586 FILLER_15_13
*587 FILLER_15_132
*588 FILLER_15_139
*589 FILLER_15_151
*590 FILLER_15_163
*591 FILLER_15_167
*592 FILLER_15_169
*593 FILLER_15_181
*594 FILLER_15_190
*595 FILLER_15_20
*596 FILLER_15_31
*597 FILLER_15_44
*598 FILLER_15_52
*599 FILLER_15_57
*600 FILLER_15_62
*601 FILLER_15_73
*602 FILLER_15_98
*603 FILLER_16_108
*604 FILLER_16_121
*605 FILLER_16_130
*606 FILLER_16_138
*607 FILLER_16_144
*608 FILLER_16_15
*609 FILLER_16_151
*610 FILLER_16_163
*611 FILLER_16_175
*612 FILLER_16_187
*613 FILLER_16_193
*614 FILLER_16_24
*615 FILLER_16_29
*616 FILLER_16_3
*617 FILLER_16_37
*618 FILLER_16_52
*619 FILLER_16_79
*620 FILLER_16_83
*621 FILLER_17_108
*622 FILLER_17_116
*623 FILLER_17_127
*624 FILLER_17_136
*625 FILLER_17_14
*626 FILLER_17_143
*627 FILLER_17_150
*628 FILLER_17_157
*629 FILLER_17_164
*630 FILLER_17_169
*631 FILLER_17_181
*632 FILLER_17_190
*633 FILLER_17_20
*634 FILLER_17_27
*635 FILLER_17_40
*636 FILLER_17_52
*637 FILLER_17_6
*638 FILLER_17_66
*639 FILLER_17_95
*640 FILLER_18_101
*641 FILLER_18_107
*642 FILLER_18_115
*643 FILLER_18_129
*644 FILLER_18_136
*645 FILLER_18_145
*646 FILLER_18_15
*647 FILLER_18_152
*648 FILLER_18_159
*649 FILLER_18_166
*650 FILLER_18_173
*651 FILLER_18_181
*652 FILLER_18_186
*653 FILLER_18_27
*654 FILLER_18_3
*655 FILLER_18_45
*656 FILLER_18_69
*657 FILLER_18_77
*658 FILLER_18_83
*659 FILLER_18_85
*660 FILLER_18_91
*661 FILLER_19_10
*662 FILLER_19_104
*663 FILLER_19_133
*664 FILLER_19_145
*665 FILLER_19_152
*666 FILLER_19_159
*667 FILLER_19_167
*668 FILLER_19_172
*669 FILLER_19_179
*670 FILLER_19_186
*671 FILLER_19_22
*672 FILLER_19_3
*673 FILLER_19_33
*674 FILLER_19_40
*675 FILLER_19_48
*676 FILLER_19_52
*677 FILLER_19_77
*678 FILLER_19_83
*679 FILLER_19_92
*680 FILLER_19_96
*681 FILLER_1_105
*682 FILLER_1_111
*683 FILLER_1_133
*684 FILLER_1_153
*685 FILLER_1_161
*686 FILLER_1_167
*687 FILLER_1_172
*688 FILLER_1_178
*689 FILLER_1_18
*690 FILLER_1_182
*691 FILLER_1_190
*692 FILLER_1_25
*693 FILLER_1_32
*694 FILLER_1_39
*695 FILLER_1_52
*696 FILLER_1_57
*697 FILLER_1_7
*698 FILLER_1_83
*699 FILLER_1_92
*700 FILLER_20_122
*701 FILLER_20_130
*702 FILLER_20_138
*703 FILLER_20_14
*704 FILLER_20_141
*705 FILLER_20_147
*706 FILLER_20_153
*707 FILLER_20_179
*708 FILLER_20_186
*709 FILLER_20_26
*710 FILLER_20_29
*711 FILLER_20_40
*712 FILLER_20_47
*713 FILLER_20_54
*714 FILLER_20_61
*715 FILLER_20_7
*716 FILLER_20_71
*717 FILLER_20_78
*718 FILLER_20_85
*719 FILLER_20_98
*720 FILLER_21_10
*721 FILLER_21_104
*722 FILLER_21_113
*723 FILLER_21_139
*724 FILLER_21_163
*725 FILLER_21_167
*726 FILLER_21_173
*727 FILLER_21_180
*728 FILLER_21_190
*729 FILLER_21_22
*730 FILLER_21_3
*731 FILLER_21_34
*732 FILLER_21_45
*733 FILLER_21_52
*734 FILLER_21_57
*735 FILLER_21_62
*736 FILLER_21_69
*737 FILLER_21_94
*738 FILLER_22_104
*739 FILLER_22_111
*740 FILLER_22_120
*741 FILLER_22_130
*742 FILLER_22_138
*743 FILLER_22_14
*744 FILLER_22_141
*745 FILLER_22_165
*746 FILLER_22_174
*747 FILLER_22_182
*748 FILLER_22_190
*749 FILLER_22_26
*750 FILLER_22_29
*751 FILLER_22_37
*752 FILLER_22_41
*753 FILLER_22_47
*754 FILLER_22_55
*755 FILLER_22_7
*756 FILLER_22_80
*757 FILLER_22_85
*758 FILLER_22_90
*759 FILLER_22_98
*760 FILLER_23_101
*761 FILLER_23_108
*762 FILLER_23_113
*763 FILLER_23_135
*764 FILLER_23_148
*765 FILLER_23_15
*766 FILLER_23_156
*767 FILLER_23_164
*768 FILLER_23_169
*769 FILLER_23_190
*770 FILLER_23_27
*771 FILLER_23_3
*772 FILLER_23_51
*773 FILLER_23_55
*774 FILLER_23_57
*775 FILLER_23_63
*776 FILLER_23_92
*777 FILLER_24_120
*778 FILLER_24_128
*779 FILLER_24_136
*780 FILLER_24_141
*781 FILLER_24_165
*782 FILLER_24_169
*783 FILLER_24_19
*784 FILLER_24_190
*785 FILLER_24_27
*786 FILLER_24_29
*787 FILLER_24_35
*788 FILLER_24_43
*789 FILLER_24_67
*790 FILLER_24_7
*791 FILLER_24_78
*792 FILLER_24_85
*793 FILLER_24_96
*794 FILLER_25_10
*795 FILLER_25_104
*796 FILLER_25_123
*797 FILLER_25_134
*798 FILLER_25_142
*799 FILLER_25_151
*800 FILLER_25_162
*801 FILLER_25_176
*802 FILLER_25_184
*803 FILLER_25_190
*804 FILLER_25_22
*805 FILLER_25_28
*806 FILLER_25_3
*807 FILLER_25_35
*808 FILLER_25_42
*809 FILLER_25_51
*810 FILLER_25_55
*811 FILLER_25_57
*812 FILLER_25_70
*813 FILLER_25_82
*814 FILLER_25_91
*815 FILLER_25_95
*816 FILLER_26_107
*817 FILLER_26_113
*818 FILLER_26_121
*819 FILLER_26_132
*820 FILLER_26_141
*821 FILLER_26_155
*822 FILLER_26_166
*823 FILLER_26_175
*824 FILLER_26_18
*825 FILLER_26_182
*826 FILLER_26_189
*827 FILLER_26_193
*828 FILLER_26_26
*829 FILLER_26_49
*830 FILLER_26_56
*831 FILLER_26_6
*832 FILLER_26_67
*833 FILLER_26_80
*834 FILLER_26_93
*835 FILLER_26_99
*836 FILLER_27_10
*837 FILLER_27_103
*838 FILLER_27_108
*839 FILLER_27_117
*840 FILLER_27_129
*841 FILLER_27_142
*842 FILLER_27_152
*843 FILLER_27_163
*844 FILLER_27_167
*845 FILLER_27_175
*846 FILLER_27_182
*847 FILLER_27_190
*848 FILLER_27_22
*849 FILLER_27_3
*850 FILLER_27_30
*851 FILLER_27_38
*852 FILLER_27_46
*853 FILLER_27_52
*854 FILLER_27_61
*855 FILLER_27_67
*856 FILLER_27_77
*857 FILLER_27_89
*858 FILLER_27_97
*859 FILLER_28_106
*860 FILLER_28_113
*861 FILLER_28_117
*862 FILLER_28_125
*863 FILLER_28_136
*864 FILLER_28_144
*865 FILLER_28_15
*866 FILLER_28_150
*867 FILLER_28_158
*868 FILLER_28_169
*869 FILLER_28_176
*870 FILLER_28_188
*871 FILLER_28_27
*872 FILLER_28_29
*873 FILLER_28_3
*874 FILLER_28_33
*875 FILLER_28_37
*876 FILLER_28_61
*877 FILLER_28_69
*878 FILLER_28_78
*879 FILLER_28_85
*880 FILLER_28_93
*881 FILLER_29_108
*882 FILLER_29_113
*883 FILLER_29_124
*884 FILLER_29_132
*885 FILLER_29_139
*886 FILLER_29_146
*887 FILLER_29_158
*888 FILLER_29_166
*889 FILLER_29_169
*890 FILLER_29_181
*891 FILLER_29_19
*892 FILLER_29_190
*893 FILLER_29_31
*894 FILLER_29_42
*895 FILLER_29_49
*896 FILLER_29_55
*897 FILLER_29_57
*898 FILLER_29_67
*899 FILLER_29_7
*900 FILLER_29_78
*901 FILLER_29_86
*902 FILLER_2_11
*903 FILLER_2_115
*904 FILLER_2_122
*905 FILLER_2_128
*906 FILLER_2_135
*907 FILLER_2_139
*908 FILLER_2_141
*909 FILLER_2_153
*910 FILLER_2_165
*911 FILLER_2_177
*912 FILLER_2_185
*913 FILLER_2_19
*914 FILLER_2_190
*915 FILLER_2_24
*916 FILLER_2_29
*917 FILLER_2_3
*918 FILLER_2_33
*919 FILLER_2_37
*920 FILLER_2_50
*921 FILLER_2_79
*922 FILLER_2_83
*923 FILLER_2_88
*924 FILLER_30_106
*925 FILLER_30_113
*926 FILLER_30_120
*927 FILLER_30_129
*928 FILLER_30_136
*929 FILLER_30_144
*930 FILLER_30_156
*931 FILLER_30_168
*932 FILLER_30_174
*933 FILLER_30_18
*934 FILLER_30_190
*935 FILLER_30_26
*936 FILLER_30_29
*937 FILLER_30_33
*938 FILLER_30_54
*939 FILLER_30_6
*940 FILLER_30_78
*941 FILLER_30_92
*942 FILLER_30_99
*943 FILLER_31_103
*944 FILLER_31_111
*945 FILLER_31_116
*946 FILLER_31_123
*947 FILLER_31_130
*948 FILLER_31_137
*949 FILLER_31_144
*950 FILLER_31_156
*951 FILLER_31_169
*952 FILLER_31_176
*953 FILLER_31_190
*954 FILLER_31_20
*955 FILLER_31_31
*956 FILLER_31_38
*957 FILLER_31_45
*958 FILLER_31_52
*959 FILLER_31_57
*960 FILLER_31_6
*961 FILLER_31_65
*962 FILLER_31_69
*963 FILLER_31_75
*964 FILLER_32_105
*965 FILLER_32_111
*966 FILLER_32_116
*967 FILLER_32_123
*968 FILLER_32_13
*969 FILLER_32_130
*970 FILLER_32_138
*971 FILLER_32_141
*972 FILLER_32_147
*973 FILLER_32_155
*974 FILLER_32_160
*975 FILLER_32_169
*976 FILLER_32_176
*977 FILLER_32_190
*978 FILLER_32_20
*979 FILLER_32_33
*980 FILLER_32_41
*981 FILLER_32_45
*982 FILLER_32_52
*983 FILLER_32_67
*984 FILLER_32_76
*985 FILLER_32_85
*986 FILLER_32_91
*987 FILLER_32_98
*988 FILLER_3_108
*989 FILLER_3_116
*990 FILLER_3_123
*991 FILLER_3_132
*992 FILLER_3_14
*993 FILLER_3_144
*994 FILLER_3_156
*995 FILLER_3_169
*996 FILLER_3_181
*997 FILLER_3_185
*998 FILLER_3_189
*999 FILLER_3_193
*1000 FILLER_3_21
*1001 FILLER_3_3
*1002 FILLER_3_32
*1003 FILLER_3_39
*1004 FILLER_3_52
*1005 FILLER_3_60
*1006 FILLER_3_69
*1007 FILLER_3_95
*1008 FILLER_4_114
*1009 FILLER_4_121
*1010 FILLER_4_128
*1011 FILLER_4_141
*1012 FILLER_4_15
*1013 FILLER_4_153
*1014 FILLER_4_165
*1015 FILLER_4_177
*1016 FILLER_4_185
*1017 FILLER_4_190
*1018 FILLER_4_24
*1019 FILLER_4_3
*1020 FILLER_4_49
*1021 FILLER_4_73
*1022 FILLER_4_80
*1023 FILLER_4_85
*1024 FILLER_5_100
*1025 FILLER_5_108
*1026 FILLER_5_116
*1027 FILLER_5_128
*1028 FILLER_5_140
*1029 FILLER_5_15
*1030 FILLER_5_152
*1031 FILLER_5_164
*1032 FILLER_5_169
*1033 FILLER_5_181
*1034 FILLER_5_193
*1035 FILLER_5_21
*1036 FILLER_5_28
*1037 FILLER_5_52
*1038 FILLER_5_57
*1039 FILLER_5_7
*1040 FILLER_5_80
*1041 FILLER_5_88
*1042 FILLER_6_111
*1043 FILLER_6_118
*1044 FILLER_6_130
*1045 FILLER_6_138
*1046 FILLER_6_141
*1047 FILLER_6_15
*1048 FILLER_6_153
*1049 FILLER_6_165
*1050 FILLER_6_177
*1051 FILLER_6_190
*1052 FILLER_6_24
*1053 FILLER_6_3
*1054 FILLER_6_32
*1055 FILLER_6_40
*1056 FILLER_6_50
*1057 FILLER_6_64
*1058 FILLER_6_77
*1059 FILLER_6_83
*1060 FILLER_6_85
*1061 FILLER_7_107
*1062 FILLER_7_111
*1063 FILLER_7_116
*1064 FILLER_7_123
*1065 FILLER_7_130
*1066 FILLER_7_142
*1067 FILLER_7_154
*1068 FILLER_7_166
*1069 FILLER_7_169
*1070 FILLER_7_18
*1071 FILLER_7_181
*1072 FILLER_7_193
*1073 FILLER_7_26
*1074 FILLER_7_38
*1075 FILLER_7_51
*1076 FILLER_7_55
*1077 FILLER_7_6
*1078 FILLER_7_64
*1079 FILLER_7_79
*1080 FILLER_7_87
*1081 FILLER_7_98
*1082 FILLER_8_103
*1083 FILLER_8_116
*1084 FILLER_8_124
*1085 FILLER_8_131
*1086 FILLER_8_139
*1087 FILLER_8_141
*1088 FILLER_8_15
*1089 FILLER_8_153
*1090 FILLER_8_165
*1091 FILLER_8_177
*1092 FILLER_8_189
*1093 FILLER_8_193
*1094 FILLER_8_24
*1095 FILLER_8_3
*1096 FILLER_8_36
*1097 FILLER_8_45
*1098 FILLER_8_57
*1099 FILLER_8_72
*1100 FILLER_8_80
*1101 FILLER_8_92
*1102 FILLER_8_96
*1103 FILLER_9_104
*1104 FILLER_9_120
*1105 FILLER_9_135
*1106 FILLER_9_147
*1107 FILLER_9_15
*1108 FILLER_9_159
*1109 FILLER_9_167
*1110 FILLER_9_169
*1111 FILLER_9_181
*1112 FILLER_9_185
*1113 FILLER_9_190
*1114 FILLER_9_24
*1115 FILLER_9_3
*1116 FILLER_9_35
*1117 FILLER_9_48
*1118 FILLER_9_63
*1119 FILLER_9_70
*1120 FILLER_9_80
*1121 FILLER_9_86
*1122 FILLER_9_92
*1123 PHY_0
*1124 PHY_1
*1125 PHY_10
*1126 PHY_11
*1127 PHY_12
*1128 PHY_13
*1129 PHY_14
*1130 PHY_15
*1131 PHY_16
*1132 PHY_17
*1133 PHY_18
*1134 PHY_19
*1135 PHY_2
*1136 PHY_20
*1137 PHY_21
*1138 PHY_22
*1139 PHY_23
*1140 PHY_24
*1141 PHY_25
*1142 PHY_26
*1143 PHY_27
*1144 PHY_28
*1145 PHY_29
*1146 PHY_3
*1147 PHY_30
*1148 PHY_31
*1149 PHY_32
*1150 PHY_33
*1151 PHY_34
*1152 PHY_35
*1153 PHY_36
*1154 PHY_37
*1155 PHY_38
*1156 PHY_39
*1157 PHY_4
*1158 PHY_40
*1159 PHY_41
*1160 PHY_42
*1161 PHY_43
*1162 PHY_44
*1163 PHY_45
*1164 PHY_46
*1165 PHY_47
*1166 PHY_48
*1167 PHY_49
*1168 PHY_5
*1169 PHY_50
*1170 PHY_51
*1171 PHY_52
*1172 PHY_53
*1173 PHY_54
*1174 PHY_55
*1175 PHY_56
*1176 PHY_57
*1177 PHY_58
*1178 PHY_59
*1179 PHY_6
*1180 PHY_60
*1181 PHY_61
*1182 PHY_62
*1183 PHY_63
*1184 PHY_64
*1185 PHY_65
*1186 PHY_7
*1187 PHY_8
*1188 PHY_9
*1189 TAP_100
*1190 TAP_101
*1191 TAP_102
*1192 TAP_103
*1193 TAP_104
*1194 TAP_105
*1195 TAP_106
*1196 TAP_107
*1197 TAP_108
*1198 TAP_109
*1199 TAP_110
*1200 TAP_111
*1201 TAP_112
*1202 TAP_113
*1203 TAP_114
*1204 TAP_115
*1205 TAP_116
*1206 TAP_117
*1207 TAP_118
*1208 TAP_119
*1209 TAP_120
*1210 TAP_121
*1211 TAP_122
*1212 TAP_123
*1213 TAP_124
*1214 TAP_125
*1215 TAP_126
*1216 TAP_127
*1217 TAP_128
*1218 TAP_129
*1219 TAP_130
*1220 TAP_131
*1221 TAP_132
*1222 TAP_133
*1223 TAP_134
*1224 TAP_135
*1225 TAP_136
*1226 TAP_137
*1227 TAP_138
*1228 TAP_139
*1229 TAP_140
*1230 TAP_141
*1231 TAP_142
*1232 TAP_143
*1233 TAP_144
*1234 TAP_145
*1235 TAP_146
*1236 TAP_147
*1237 TAP_148
*1238 TAP_149
*1239 TAP_150
*1240 TAP_151
*1241 TAP_152
*1242 TAP_153
*1243 TAP_154
*1244 TAP_155
*1245 TAP_156
*1246 TAP_157
*1247 TAP_158
*1248 TAP_159
*1249 TAP_160
*1250 TAP_161
*1251 TAP_162
*1252 TAP_163
*1253 TAP_164
*1254 TAP_165
*1255 TAP_166
*1256 TAP_167
*1257 TAP_168
*1258 TAP_169
*1259 TAP_170
*1260 TAP_66
*1261 TAP_67
*1262 TAP_68
*1263 TAP_69
*1264 TAP_70
*1265 TAP_71
*1266 TAP_72
*1267 TAP_73
*1268 TAP_74
*1269 TAP_75
*1270 TAP_76
*1271 TAP_77
*1272 TAP_78
*1273 TAP_79
*1274 TAP_80
*1275 TAP_81
*1276 TAP_82
*1277 TAP_83
*1278 TAP_84
*1279 TAP_85
*1280 TAP_86
*1281 TAP_87
*1282 TAP_88
*1283 TAP_89
*1284 TAP_90
*1285 TAP_91
*1286 TAP_92
*1287 TAP_93
*1288 TAP_94
*1289 TAP_95
*1290 TAP_96
*1291 TAP_97
*1292 TAP_98
*1293 TAP_99
*1294 _274_
*1295 _275_
*1296 _276_
*1297 _277_
*1298 _278_
*1299 _279_
*1300 _280_
*1301 _281_
*1302 _282_
*1303 _283_
*1304 _284_
*1305 _285_
*1306 _286_
*1307 _287_
*1308 _288_
*1309 _289_
*1310 _290_
*1311 _291_
*1312 _292_
*1313 _293_
*1314 _294_
*1315 _295_
*1316 _296_
*1317 _297_
*1318 _298_
*1319 _299_
*1320 _300_
*1321 _301_
*1322 _302_
*1323 _303_
*1324 _304_
*1325 _305_
*1326 _306_
*1327 _307_
*1328 _308_
*1329 _309_
*1330 _310_
*1331 _311_
*1332 _312_
*1333 _313_
*1334 _314_
*1335 _315_
*1336 _316_
*1337 _317_
*1338 _318_
*1339 _319_
*1340 _320_
*1341 _321_
*1342 _322_
*1343 _323_
*1344 _324_
*1345 _325_
*1346 _326_
*1347 _327_
*1348 _328_
*1349 _329_
*1350 _330_
*1351 _331_
*1352 _332_
*1353 _333_
*1354 _334_
*1355 _335_
*1356 _336_
*1357 _337_
*1358 _338_
*1359 _339_
*1360 _340_
*1361 _341_
*1362 _342_
*1363 _343_
*1364 _344_
*1365 _345_
*1366 _346_
*1367 _347_
*1368 _348_
*1369 _349_
*1370 _350_
*1371 _351_
*1372 _352_
*1373 _353_
*1374 _354_
*1375 _355_
*1376 _356_
*1377 _357_
*1378 _358_
*1379 _359_
*1380 _360_
*1381 _361_
*1382 _362_
*1383 _363_
*1384 _364_
*1385 _365_
*1386 _366_
*1387 _367_
*1388 _368_
*1389 _369_
*1390 _370_
*1391 _371_
*1392 _372_
*1393 _373_
*1394 _374_
*1395 _375_
*1396 _376_
*1397 _377_
*1398 _378_
*1399 _379_
*1400 _380_
*1401 _381_
*1402 _382_
*1403 _383_
*1404 _384_
*1405 _385_
*1406 _386_
*1407 _387_
*1408 _388_
*1409 _389_
*1410 _390_
*1411 _391_
*1412 _392_
*1413 _393_
*1414 _394_
*1415 _395_
*1416 _396_
*1417 _397_
*1418 _398_
*1419 _399_
*1420 _400_
*1421 _401_
*1422 _402_
*1423 _403_
*1424 _404_
*1425 _405_
*1426 _406_
*1427 _407_
*1428 _408_
*1429 _409_
*1430 _410_
*1431 _411_
*1432 _412_
*1433 _413_
*1434 _414_
*1435 _415_
*1436 _416_
*1437 _417_
*1438 _418_
*1439 _419_
*1440 _420_
*1441 _421_
*1442 _422_
*1443 _423_
*1444 _424_
*1445 _425_
*1446 _426_
*1447 _427_
*1448 _428_
*1449 _429_
*1450 _430_
*1451 _431_
*1452 _432_
*1453 _433_
*1454 _434_
*1455 _435_
*1456 _436_
*1457 _437_
*1458 _438_
*1459 _439_
*1460 _440_
*1461 _441_
*1462 _442_
*1463 _443_
*1464 _444_
*1465 _445_
*1466 _446_
*1467 _447_
*1468 _448_
*1469 _449_
*1470 _450_
*1471 _451_
*1472 _452_
*1473 _453_
*1474 _454_
*1475 _455_
*1476 _456_
*1477 _457_
*1478 _458_
*1479 _459_
*1480 _460_
*1481 _461_
*1482 _462_
*1483 _463_
*1484 _464_
*1485 _465_
*1486 _466_
*1487 _467_
*1488 _468_
*1489 _469_
*1490 _470_
*1491 _471_
*1492 _472_
*1493 _473_
*1494 _474_
*1495 _475_
*1496 _476_
*1497 _477_
*1498 _478_
*1499 _479_
*1500 _480_
*1501 _481_
*1502 _482_
*1503 _483_
*1504 _484_
*1505 _485_
*1506 _486_
*1507 _487_
*1508 _488_
*1509 _489_
*1510 _490_
*1511 _491_
*1512 _492_
*1513 _493_
*1514 _494_
*1515 _495_
*1516 _496_
*1517 _497_
*1518 _498_
*1519 _499_
*1520 _500_
*1521 _501_
*1522 _502_
*1523 _503_
*1524 _504_
*1525 _505_
*1526 _506_
*1527 _507_
*1528 _508_
*1529 _509_
*1530 _510_
*1531 _511_
*1532 _512_
*1533 _513_
*1534 _514_
*1535 _515_
*1536 _516_
*1537 _517_
*1538 _518_
*1539 _519_
*1540 _520_
*1541 _521_
*1542 _522_
*1543 _523_
*1544 _524_
*1545 _525_
*1546 _526_
*1547 _527_
*1548 _528_
*1549 _529_
*1550 _530_
*1551 _531_
*1552 _532_
*1553 _533_
*1554 _534_
*1555 _535_
*1556 _536_
*1557 _537_
*1558 _538_
*1559 _539_
*1560 _540_
*1561 _541_
*1562 _542_
*1563 _543_
*1564 _544_
*1565 _545_
*1566 _546_
*1567 _547_
*1568 _548_
*1569 _549_
*1570 _550_
*1571 _551_
*1572 _552_
*1573 _553_
*1574 _554_
*1575 _555_
*1576 _556_
*1577 _557_
*1578 _558_
*1579 _559_
*1580 _560_
*1581 _561_
*1582 _562_
*1583 _563_
*1584 _564_
*1585 _565_
*1586 _566_
*1587 _567_
*1588 _568_
*1589 _569_
*1590 _570_
*1591 _571_
*1592 _572_
*1593 _573_
*1594 _574_
*1595 _575_
*1596 _576_
*1597 _577_
*1598 _578_
*1599 _579_
*1600 _580_
*1601 _581_
*1602 _582_
*1603 _583_
*1604 _584_
*1605 _585_
*1606 _586_
*1607 _587_
*1608 _588_
*1609 _589_
*1610 _590_
*1611 _591_
*1612 _592_
*1613 _593_
*1614 _594_
*1615 _595_
*1616 _596_
*1617 _597_
*1618 _598_
*1619 _599_
*1620 _600_
*1621 _601_
*1622 _602_
*1623 _603_
*1624 _604_
*1625 _605_
*1626 _606_
*1627 _607_
*1628 _608_
*1629 _609_
*1630 _610_
*1631 _611_
*1632 _612_
*1633 _613_
*1634 clkbuf_0_clk
*1635 clkbuf_1_0_0_clk
*1636 clkbuf_1_1_0_clk
*1637 input1
*1638 input10
*1639 input11
*1640 input12
*1641 input13
*1642 input14
*1643 input15
*1644 input16
*1645 input17
*1646 input18
*1647 input19
*1648 input2
*1649 input20
*1650 input21
*1651 input22
*1652 input23
*1653 input24
*1654 input25
*1655 input26
*1656 input27
*1657 input28
*1658 input29
*1659 input3
*1660 input30
*1661 input31
*1662 input32
*1663 input33
*1664 input34
*1665 input35
*1666 input36
*1667 input37
*1668 input38
*1669 input39
*1670 input4
*1671 input40
*1672 input41
*1673 input42
*1674 input43
*1675 input5
*1676 input6
*1677 input7
*1678 input8
*1679 input9
*1680 output44
*1681 output45
*1682 output46
*1683 output47
*1684 output48
*1685 output49
*1686 output50
*1687 output51
*1688 output52
*1689 output53
*1690 output54
*1691 output55
*1692 output56
*1693 output57
*1694 output58
*1695 output59
*1696 output60
*1697 output61
*1698 output62
*1699 output63
*1700 output64
*1701 output65
*1702 output66
*1703 output67

*PORTS
buffer_val[0] O
buffer_val[1] O
buffer_val[2] O
buffer_val[3] O
buffer_val[4] O
buffer_val[5] O
buffer_val[6] O
buffer_val[7] O
buffer_val[8] O
buffer_val[9] O
clk I
corner[0] O
corner[1] O
corner[2] O
dac[0] O
dac[1] O
dac[2] O
dac[3] O
dac[4] O
dac[5] O
dac[6] O
dac[7] O
dac[8] O
dac[9] O
lock O
lower[0] I
lower[1] I
lower[2] I
lower[3] I
lower[4] I
lower[5] I
lower[6] I
lower[7] I
lower[8] I
lower[9] I
ref I
ref_time[0] I
ref_time[1] I
ref_time[2] I
ref_time[3] I
ref_time[4] I
ref_time[5] I
ref_time[6] I
ref_time[7] I
ref_time[8] I
ref_time[9] I
reset I
test I
test_val[0] I
test_val[1] I
test_val[2] I
test_val[3] I
test_val[4] I
test_val[5] I
test_val[6] I
test_val[7] I
test_val[8] I
test_val[9] I
upper[0] I
upper[1] I
upper[2] I
upper[3] I
upper[4] I
upper[5] I
upper[6] I
upper[7] I
upper[8] I
upper[9] I

*D_NET *3 0.000484801
*CONN
*P buffer_val[0] O
*I *1680:X O *D sky130_fd_sc_hd__buf_2
*CAP
1 buffer_val[0] 0.000242401
2 *1680:X 0.000242401
3 buffer_val[0] *1647:A 0
4 buffer_val[0] *1672:A 0
5 buffer_val[0] *433:35 0
*RES
1 *1680:X buffer_val[0] 18.6634 
*END

*D_NET *4 0.00168819
*CONN
*P buffer_val[1] O
*I *1681:X O *D sky130_fd_sc_hd__buf_2
*CAP
1 buffer_val[1] 0.000844095
2 *1681:X 0.000844095
*RES
1 *1681:X buffer_val[1] 32.2147 
*END

*D_NET *5 0.00102649
*CONN
*P buffer_val[2] O
*I *1682:X O *D sky130_fd_sc_hd__buf_2
*CAP
1 buffer_val[2] 0.000400762
2 *1682:X 0.000400762
3 buffer_val[2] dac[7] 0
4 buffer_val[2] *1593:RESET_B 0.000114829
5 buffer_val[2] *1634:A 0
6 buffer_val[2] *417:10 0.000110141
*RES
1 *1682:X buffer_val[2] 20.2916 
*END

*D_NET *6 0.00112005
*CONN
*P buffer_val[3] O
*I *1683:X O *D sky130_fd_sc_hd__buf_2
*CAP
1 buffer_val[3] 0.000560023
2 *1683:X 0.000560023
3 buffer_val[3] buffer_val[5] 0
4 buffer_val[3] buffer_val[7] 0
5 buffer_val[3] *429:59 0
*RES
1 *1683:X buffer_val[3] 21.9526 
*END

*D_NET *7 0.000931596
*CONN
*P buffer_val[4] O
*I *1684:X O *D sky130_fd_sc_hd__buf_2
*CAP
1 buffer_val[4] 0.000465798
2 *1684:X 0.000465798
3 buffer_val[4] lock 0
4 buffer_val[4] *1648:A 0
5 buffer_val[4] *1651:A 0
6 buffer_val[4] *1660:A 0
*RES
1 *1684:X buffer_val[4] 22.4007 
*END

*D_NET *8 0.00139223
*CONN
*P buffer_val[5] O
*I *1685:X O *D sky130_fd_sc_hd__buf_2
*CAP
1 buffer_val[5] 0.000696117
2 *1685:X 0.000696117
3 buffer_val[5] dac[3] 0
4 buffer_val[5] *1657:A 0
5 buffer_val[5] *1670:A 0
6 buffer_val[3] buffer_val[5] 0
*RES
1 *1685:X buffer_val[5] 24.302 
*END

*D_NET *9 0.00336319
*CONN
*P buffer_val[6] O
*I *1686:X O *D sky130_fd_sc_hd__buf_2
*CAP
1 buffer_val[6] 0.00135809
2 *1686:X 0.00135809
3 buffer_val[6] *1654:A 0
4 buffer_val[6] *402:7 0.000647008
*RES
1 *1686:X buffer_val[6] 42.2003 
*END

*D_NET *10 0.000930056
*CONN
*P buffer_val[7] O
*I *1687:X O *D sky130_fd_sc_hd__buf_2
*CAP
1 buffer_val[7] 0.000438768
2 *1687:X 0.000438768
3 buffer_val[7] *1638:A 0
4 buffer_val[7] *1687:A 5.25197e-05
5 buffer_val[7] *450:8 0
6 buffer_val[3] buffer_val[7] 0
*RES
1 *1687:X buffer_val[7] 20.2916 
*END

*D_NET *11 0.000543508
*CONN
*P buffer_val[8] O
*I *1688:X O *D sky130_fd_sc_hd__buf_2
*CAP
1 buffer_val[8] 0.000271754
2 *1688:X 0.000271754
3 buffer_val[8] *1648:A 0
4 buffer_val[8] *1658:A 0
5 buffer_val[8] *433:35 0
*RES
1 *1688:X buffer_val[8] 19.0786 
*END

*D_NET *12 0.000735069
*CONN
*P buffer_val[9] O
*I *1689:X O *D sky130_fd_sc_hd__buf_2
*CAP
1 buffer_val[9] 0.000365156
2 *1689:X 0.000365156
3 buffer_val[9] dac[7] 0
4 buffer_val[9] *1656:A 0
5 buffer_val[9] *407:8 4.75721e-06
*RES
1 *1689:X buffer_val[9] 18.6306 
*END

*D_NET *13 0.00295597
*CONN
*P clk I
*I *1634:A I *D sky130_fd_sc_hd__clkbuf_16
*CAP
1 clk 0.00142274
2 *1634:A 0.00142274
3 *1634:A *1480:A1 5.50522e-06
4 *1634:A *1480:A2 5.62448e-05
5 *1634:A *1594:CLK 0
6 *1634:A *1594:RESET_B 0
7 *1634:A *1636:A 4.87301e-05
8 *1634:A *1664:A 0
9 *1634:A *418:8 0
10 *1634:A *435:40 0
11 buffer_val[2] *1634:A 0
*RES
1 clk *1634:A 29.4812 
*END

*D_NET *14 0.00163851
*CONN
*P corner[0] O
*I *1690:X O *D sky130_fd_sc_hd__buf_2
*CAP
1 corner[0] 0.000626005
2 *1690:X 0.000626005
3 corner[0] *1653:A 0
4 corner[0] *406:17 0.000386499
*RES
1 *1690:X corner[0] 28.8898 
*END

*D_NET *15 0.00318127