* NGSPICE file created from fll_wrapper_2.ext - technology: sky130A

* Black-box entry subcircuit for sky130_fd_sc_hd__decap_4 abstract view
.subckt sky130_fd_sc_hd__decap_4 VGND VNB VPB VPWR
.ends

* Black-box entry subcircuit for sky130_fd_sc_hd__a22o_1 abstract view
.subckt sky130_fd_sc_hd__a22o_1 A1 A2 B1 B2 VGND VNB VPB VPWR X
.ends

* Black-box entry subcircuit for sky130_fd_sc_hd__or2_1 abstract view
.subckt sky130_fd_sc_hd__or2_1 A B VGND VNB VPB VPWR X
.ends

* Black-box entry subcircuit for sky130_fd_sc_hd__a21o_1 abstract view
.subckt sky130_fd_sc_hd__a21o_1 A1 A2 B1 VGND VNB VPB VPWR X
.ends

* Black-box entry subcircuit for sky130_fd_sc_hd__fill_2 abstract view
.subckt sky130_fd_sc_hd__fill_2 VGND VNB VPB VPWR
.ends

* Black-box entry subcircuit for sky130_fd_sc_hd__and2b_1 abstract view
.subckt sky130_fd_sc_hd__and2b_1 A_N B VGND VNB VPB VPWR X
.ends

* Black-box entry subcircuit for sky130_fd_sc_hd__decap_8 abstract view
.subckt sky130_fd_sc_hd__decap_8 VGND VNB VPB VPWR
.ends

* Black-box entry subcircuit for sky130_fd_sc_hd__a31o_1 abstract view
.subckt sky130_fd_sc_hd__a31o_1 A1 A2 A3 B1 VGND VNB VPB VPWR X
.ends

* Black-box entry subcircuit for sky130_fd_sc_hd__mux2_1 abstract view
.subckt sky130_fd_sc_hd__mux2_1 A0 A1 S VGND VNB VPB VPWR X
.ends

* Black-box entry subcircuit for sky130_fd_sc_hd__decap_12 abstract view
.subckt sky130_fd_sc_hd__decap_12 VGND VNB VPB VPWR
.ends

* Black-box entry subcircuit for sky130_fd_sc_hd__inv_2 abstract view
.subckt sky130_fd_sc_hd__inv_2 A VGND VNB VPB VPWR Y
.ends

* Black-box entry subcircuit for sky130_fd_sc_hd__o2bb2a_1 abstract view
.subckt sky130_fd_sc_hd__o2bb2a_1 A1_N A2_N B1 B2 VGND VNB VPB VPWR X
.ends

* Black-box entry subcircuit for sky130_fd_sc_hd__fill_1 abstract view
.subckt sky130_fd_sc_hd__fill_1 VGND VNB VPB VPWR
.ends

* Black-box entry subcircuit for sky130_fd_sc_hd__dfrtp_1 abstract view
.subckt sky130_fd_sc_hd__dfrtp_1 CLK D RESET_B VGND VNB VPB VPWR Q
.ends

* Black-box entry subcircuit for sky130_fd_sc_hd__buf_2 abstract view
.subckt sky130_fd_sc_hd__buf_2 A VGND VNB VPB VPWR X
.ends

* Black-box entry subcircuit for sky130_fd_sc_hd__tapvpwrvgnd_1 abstract view
.subckt sky130_fd_sc_hd__tapvpwrvgnd_1 VGND VPWR
.ends

* Black-box entry subcircuit for sky130_fd_sc_hd__o221a_1 abstract view
.subckt sky130_fd_sc_hd__o221a_1 A1 A2 B1 B2 C1 VGND VNB VPB VPWR X
.ends

* Black-box entry subcircuit for sky130_fd_sc_hd__and3_1 abstract view
.subckt sky130_fd_sc_hd__and3_1 A B C VGND VNB VPB VPWR X
.ends

* Black-box entry subcircuit for sky130_fd_sc_hd__clkbuf_1 abstract view
.subckt sky130_fd_sc_hd__clkbuf_1 A VGND VNB VPB VPWR X
.ends

* Black-box entry subcircuit for sky130_fd_sc_hd__nor2_1 abstract view
.subckt sky130_fd_sc_hd__nor2_1 A B VGND VNB VPB VPWR Y
.ends

* Black-box entry subcircuit for sky130_fd_sc_hd__xnor2_1 abstract view
.subckt sky130_fd_sc_hd__xnor2_1 A B VGND VNB VPB VPWR Y
.ends

* Black-box entry subcircuit for sky130_fd_sc_hd__decap_6 abstract view
.subckt sky130_fd_sc_hd__decap_6 VGND VNB VPB VPWR
.ends

* Black-box entry subcircuit for sky130_fd_sc_hd__dfrtp_4 abstract view
.subckt sky130_fd_sc_hd__dfrtp_4 CLK D RESET_B VGND VNB VPB VPWR Q
.ends

* Black-box entry subcircuit for sky130_fd_sc_hd__o22a_1 abstract view
.subckt sky130_fd_sc_hd__o22a_1 A1 A2 B1 B2 VGND VNB VPB VPWR X
.ends

* Black-box entry subcircuit for sky130_fd_sc_hd__clkbuf_2 abstract view
.subckt sky130_fd_sc_hd__clkbuf_2 A VGND VNB VPB VPWR X
.ends

* Black-box entry subcircuit for sky130_fd_sc_hd__dfxtp_1 abstract view
.subckt sky130_fd_sc_hd__dfxtp_1 CLK D VGND VNB VPB VPWR Q
.ends

* Black-box entry subcircuit for sky130_fd_sc_hd__a21oi_1 abstract view
.subckt sky130_fd_sc_hd__a21oi_1 A1 A2 B1 VGND VNB VPB VPWR Y
.ends

* Black-box entry subcircuit for sky130_fd_sc_hd__or2b_1 abstract view
.subckt sky130_fd_sc_hd__or2b_1 A B_N VGND VNB VPB VPWR X
.ends

* Black-box entry subcircuit for sky130_fd_sc_hd__and2_1 abstract view
.subckt sky130_fd_sc_hd__and2_1 A B VGND VNB VPB VPWR X
.ends

* Black-box entry subcircuit for sky130_fd_sc_hd__dfstp_1 abstract view
.subckt sky130_fd_sc_hd__dfstp_1 CLK D SET_B VGND VNB VPB VPWR Q
.ends

* Black-box entry subcircuit for sky130_fd_sc_hd__and4_1 abstract view
.subckt sky130_fd_sc_hd__and4_1 A B C D VGND VNB VPB VPWR X
.ends

* Black-box entry subcircuit for sky130_fd_sc_hd__decap_3 abstract view
.subckt sky130_fd_sc_hd__decap_3 VGND VNB VPB VPWR
.ends

* Black-box entry subcircuit for sky130_fd_sc_hd__a221o_1 abstract view
.subckt sky130_fd_sc_hd__a221o_1 A1 A2 B1 B2 C1 VGND VNB VPB VPWR X
.ends

* Black-box entry subcircuit for sky130_fd_sc_hd__clkbuf_16 abstract view
.subckt sky130_fd_sc_hd__clkbuf_16 A VGND VNB VPB VPWR X
.ends

* Black-box entry subcircuit for sky130_fd_sc_hd__nor2b_2 abstract view
.subckt sky130_fd_sc_hd__nor2b_2 A B_N VGND VNB VPB VPWR Y
.ends

* Black-box entry subcircuit for sky130_fd_sc_hd__dfrtp_2 abstract view
.subckt sky130_fd_sc_hd__dfrtp_2 CLK D RESET_B VGND VNB VPB VPWR Q
.ends

* Black-box entry subcircuit for sky130_fd_sc_hd__dlymetal6s2s_1 abstract view
.subckt sky130_fd_sc_hd__dlymetal6s2s_1 A VGND VNB VPB VPWR X
.ends

* Black-box entry subcircuit for sky130_fd_sc_hd__nor3_1 abstract view
.subckt sky130_fd_sc_hd__nor3_1 A B C VGND VNB VPB VPWR Y
.ends

* Black-box entry subcircuit for sky130_fd_sc_hd__or4b_1 abstract view
.subckt sky130_fd_sc_hd__or4b_1 A B C D_N VGND VNB VPB VPWR X
.ends

* Black-box entry subcircuit for sky130_fd_sc_hd__clkinv_2 abstract view
.subckt sky130_fd_sc_hd__clkinv_2 A VGND VNB VPB VPWR Y
.ends

* Black-box entry subcircuit for sky130_fd_sc_hd__nand2_1 abstract view
.subckt sky130_fd_sc_hd__nand2_1 A B VGND VNB VPB VPWR Y
.ends

* Black-box entry subcircuit for sky130_fd_sc_hd__xor2_1 abstract view
.subckt sky130_fd_sc_hd__xor2_1 A B VGND VNB VPB VPWR X
.ends

* Black-box entry subcircuit for sky130_fd_sc_hd__or3_1 abstract view
.subckt sky130_fd_sc_hd__or3_1 A B C VGND VNB VPB VPWR X
.ends

* Black-box entry subcircuit for sky130_fd_sc_hd__o311a_1 abstract view
.subckt sky130_fd_sc_hd__o311a_1 A1 A2 A3 B1 C1 VGND VNB VPB VPWR X
.ends

* Black-box entry subcircuit for sky130_fd_sc_hd__buf_8 abstract view
.subckt sky130_fd_sc_hd__buf_8 A VGND VNB VPB VPWR X
.ends

* Black-box entry subcircuit for sky130_fd_sc_hd__nor3_2 abstract view
.subckt sky130_fd_sc_hd__nor3_2 A B C VGND VNB VPB VPWR Y
.ends

* Black-box entry subcircuit for sky130_fd_sc_hd__o21ai_1 abstract view
.subckt sky130_fd_sc_hd__o21ai_1 A1 A2 B1 VGND VNB VPB VPWR Y
.ends

* Black-box entry subcircuit for sky130_fd_sc_hd__a211o_1 abstract view
.subckt sky130_fd_sc_hd__a211o_1 A1 A2 B1 C1 VGND VNB VPB VPWR X
.ends

* Black-box entry subcircuit for sky130_fd_sc_hd__a2bb2o_1 abstract view
.subckt sky130_fd_sc_hd__a2bb2o_1 A1_N A2_N B1 B2 VGND VNB VPB VPWR X
.ends

* Black-box entry subcircuit for sky130_fd_sc_hd__o21a_1 abstract view
.subckt sky130_fd_sc_hd__o21a_1 A1 A2 B1 VGND VNB VPB VPWR X
.ends

* Black-box entry subcircuit for sky130_fd_sc_hd__o211a_1 abstract view
.subckt sky130_fd_sc_hd__o211a_1 A1 A2 B1 C1 VGND VNB VPB VPWR X
.ends

* Black-box entry subcircuit for sky130_fd_sc_hd__o41a_1 abstract view
.subckt sky130_fd_sc_hd__o41a_1 A1 A2 A3 A4 B1 VGND VNB VPB VPWR X
.ends

* Black-box entry subcircuit for sky130_fd_sc_hd__clkbuf_4 abstract view
.subckt sky130_fd_sc_hd__clkbuf_4 A VGND VNB VPB VPWR X
.ends

* Black-box entry subcircuit for sky130_fd_sc_hd__a21bo_1 abstract view
.subckt sky130_fd_sc_hd__a21bo_1 A1 A2 B1_N VGND VNB VPB VPWR X
.ends

* Black-box entry subcircuit for sky130_fd_sc_hd__and4b_1 abstract view
.subckt sky130_fd_sc_hd__and4b_1 A_N B C D VGND VNB VPB VPWR X
.ends

* Black-box entry subcircuit for sky130_fd_sc_hd__a21boi_2 abstract view
.subckt sky130_fd_sc_hd__a21boi_2 A1 A2 B1_N VGND VNB VPB VPWR Y
.ends

* Black-box entry subcircuit for sky130_fd_sc_hd__o21ba_1 abstract view
.subckt sky130_fd_sc_hd__o21ba_1 A1 A2 B1_N VGND VNB VPB VPWR X
.ends

.subckt fll_wrapper_2 VGND VPWR buffer_val[0] buffer_val[1] buffer_val[2] buffer_val[3]
+ buffer_val[4] buffer_val[5] buffer_val[6] buffer_val[7] buffer_val[8] buffer_val[9]
+ clk corner[0] corner[1] corner[2] dac[0] dac[1] dac[2] dac[3] dac[4] dac[5] dac[6]
+ dac[7] dac[8] dac[9] lock lower[0] lower[1] lower[2] lower[3] lower[4] lower[5]
+ lower[6] lower[7] lower[8] lower[9] ref ref_time[0] ref_time[1] ref_time[2] ref_time[3]
+ ref_time[4] ref_time[5] ref_time[6] ref_time[7] ref_time[8] ref_time[9] reset test
+ test_val[0] test_val[1] test_val[2] test_val[3] test_val[4] test_val[5] test_val[6]
+ test_val[7] test_val[8] test_val[9] upper[0] upper[1] upper[2] upper[3] upper[4]
+ upper[5] upper[6] upper[7] upper[8] upper[9]
XFILLER_22_111 VGND VGND VPWR VPWR sky130_fd_sc_hd__decap_4
X_294_ _288_/Y _563_/Q _294_/B1 _484_/A VGND VGND VPWR VPWR _294_/X sky130_fd_sc_hd__a22o_1
X_363_ _393_/C _368_/B VGND VGND VPWR VPWR _431_/C sky130_fd_sc_hd__or2_1
X_432_ _431_/B _431_/C _436_/A VGND VGND VPWR VPWR _433_/B sky130_fd_sc_hd__a21o_1
XFILLER_13_166 VGND VGND VPWR VPWR sky130_fd_sc_hd__fill_2
X_501_ _504_/S _559_/Q VGND VGND VPWR VPWR _502_/A sky130_fd_sc_hd__and2b_1
XFILLER_9_104 VGND VGND VPWR VPWR sky130_fd_sc_hd__decap_8
XFILLER_9_159 VGND VGND VPWR VPWR sky130_fd_sc_hd__decap_8
X_346_ _345_/B _342_/X _344_/Y _345_/Y VGND VGND VPWR VPWR _368_/B sky130_fd_sc_hd__a31o_1
XFILLER_10_136 VGND VGND VPWR VPWR sky130_fd_sc_hd__decap_4
X_415_ _586_/Q _414_/Y _434_/S VGND VGND VPWR VPWR _416_/A sky130_fd_sc_hd__mux2_1
XFILLER_6_118 VGND VGND VPWR VPWR sky130_fd_sc_hd__decap_12
X_277_ _566_/Q VGND VGND VPWR VPWR _277_/Y sky130_fd_sc_hd__inv_2
XFILLER_5_140 VGND VGND VPWR VPWR sky130_fd_sc_hd__decap_12
X_329_ _340_/A1 _465_/A _576_/Q _328_/Y VGND VGND VPWR VPWR _341_/B sky130_fd_sc_hd__o2bb2a_1
XFILLER_0_57 VGND VGND VPWR VPWR sky130_fd_sc_hd__decap_4
XFILLER_0_46 VGND VGND VPWR VPWR sky130_fd_sc_hd__fill_1
XFILLER_2_165 VGND VGND VPWR VPWR sky130_fd_sc_hd__decap_12
XFILLER_22_7 VGND VGND VPWR VPWR sky130_fd_sc_hd__decap_4
XFILLER_29_139 VGND VGND VPWR VPWR sky130_fd_sc_hd__decap_4
XFILLER_28_150 VGND VGND VPWR VPWR sky130_fd_sc_hd__fill_1
XFILLER_20_98 VGND VGND VPWR VPWR sky130_fd_sc_hd__decap_4
XFILLER_20_54 VGND VGND VPWR VPWR sky130_fd_sc_hd__decap_4
X_594_ _593_/Q _594_/D _547_/Y VGND VGND VPWR VPWR _604_/A sky130_fd_sc_hd__dfrtp_1
XFILLER_19_172 VGND VGND VPWR VPWR sky130_fd_sc_hd__decap_4
XFILLER_13_3 VGND VGND VPWR VPWR sky130_fd_sc_hd__decap_12
XFILLER_31_31 VGND VGND VPWR VPWR sky130_fd_sc_hd__decap_4
XFILLER_31_20 VGND VGND VPWR VPWR sky130_fd_sc_hd__decap_8
XFILLER_25_142 VGND VGND VPWR VPWR sky130_fd_sc_hd__fill_2
XFILLER_15_98 VGND VGND VPWR VPWR sky130_fd_sc_hd__decap_4
XFILLER_31_156 VGND VGND VPWR VPWR sky130_fd_sc_hd__decap_12
XFILLER_31_123 VGND VGND VPWR VPWR sky130_fd_sc_hd__decap_4
XFILLER_31_75 VGND VGND VPWR VPWR sky130_fd_sc_hd__decap_8
Xoutput53 _613_/A VGND VGND VPWR VPWR buffer_val[9] sky130_fd_sc_hd__buf_2
Xoutput64 _611_/X VGND VGND VPWR VPWR dac[7] sky130_fd_sc_hd__buf_2
X_577_ _580_/CLK _577_/D _526_/Y VGND VGND VPWR VPWR _577_/Q sky130_fd_sc_hd__dfrtp_1
XFILLER_16_175 VGND VGND VPWR VPWR sky130_fd_sc_hd__decap_12
XTAP_167 VGND VPWR sky130_fd_sc_hd__tapvpwrvgnd_1
XTAP_156 VGND VPWR sky130_fd_sc_hd__tapvpwrvgnd_1
XTAP_145 VGND VPWR sky130_fd_sc_hd__tapvpwrvgnd_1
XTAP_134 VGND VPWR sky130_fd_sc_hd__tapvpwrvgnd_1
XTAP_123 VGND VPWR sky130_fd_sc_hd__tapvpwrvgnd_1
XTAP_112 VGND VPWR sky130_fd_sc_hd__tapvpwrvgnd_1
XTAP_101 VGND VPWR sky130_fd_sc_hd__tapvpwrvgnd_1
X_293_ _294_/B1 _484_/A _278_/Y _569_/Q _292_/X VGND VGND VPWR VPWR _296_/C sky130_fd_sc_hd__o221a_1
X_431_ _436_/A _431_/B _431_/C VGND VGND VPWR VPWR _431_/X sky130_fd_sc_hd__and3_1
X_500_ _500_/A VGND VGND VPWR VPWR _558_/D sky130_fd_sc_hd__clkbuf_1
X_362_ _582_/Q VGND VGND VPWR VPWR _393_/C sky130_fd_sc_hd__clkbuf_1
XFILLER_8_193 VGND VGND VPWR VPWR sky130_fd_sc_hd__fill_1
XFILLER_12_55 VGND VGND VPWR VPWR sky130_fd_sc_hd__decap_4
X_276_ _280_/A _561_/D _292_/A1 _275_/Y VGND VGND VPWR VPWR _287_/A sky130_fd_sc_hd__a22o_1
X_345_ _345_/A _345_/B VGND VGND VPWR VPWR _345_/Y sky130_fd_sc_hd__nor2_1
XFILLER_5_152 VGND VGND VPWR VPWR sky130_fd_sc_hd__decap_12
X_414_ _414_/A _414_/B VGND VGND VPWR VPWR _414_/Y sky130_fd_sc_hd__xnor2_1
X_328_ _328_/A VGND VGND VPWR VPWR _328_/Y sky130_fd_sc_hd__inv_2
XFILLER_0_14 VGND VGND VPWR VPWR sky130_fd_sc_hd__decap_4
XFILLER_2_122 VGND VGND VPWR VPWR sky130_fd_sc_hd__decap_6
XFILLER_2_177 VGND VGND VPWR VPWR sky130_fd_sc_hd__decap_8
XFILLER_29_86 VGND VGND VPWR VPWR sky130_fd_sc_hd__fill_2
XFILLER_29_42 VGND VGND VPWR VPWR sky130_fd_sc_hd__decap_4
XFILLER_29_31 VGND VGND VPWR VPWR sky130_fd_sc_hd__decap_8
X_593_ input11/X _593_/D _546_/Y VGND VGND VPWR VPWR _593_/Q sky130_fd_sc_hd__dfrtp_4
XFILLER_6_24 VGND VGND VPWR VPWR sky130_fd_sc_hd__decap_4
XFILLER_25_176 VGND VGND VPWR VPWR sky130_fd_sc_hd__decap_8
XFILLER_15_44 VGND VGND VPWR VPWR sky130_fd_sc_hd__decap_4
Xoutput65 _612_/X VGND VGND VPWR VPWR dac[8] sky130_fd_sc_hd__buf_2
Xoutput54 _558_/Q VGND VGND VPWR VPWR corner[0] sky130_fd_sc_hd__buf_2
XFILLER_31_65 VGND VGND VPWR VPWR sky130_fd_sc_hd__decap_4
X_576_ _580_/CLK _576_/D _525_/Y VGND VGND VPWR VPWR _576_/Q sky130_fd_sc_hd__dfrtp_1
XFILLER_16_187 VGND VGND VPWR VPWR sky130_fd_sc_hd__decap_6
XFILLER_16_121 VGND VGND VPWR VPWR sky130_fd_sc_hd__decap_4
XTAP_168 VGND VPWR sky130_fd_sc_hd__tapvpwrvgnd_1
XFILLER_30_190 VGND VGND VPWR VPWR sky130_fd_sc_hd__decap_4
XTAP_157 VGND VPWR sky130_fd_sc_hd__tapvpwrvgnd_1
XTAP_146 VGND VPWR sky130_fd_sc_hd__tapvpwrvgnd_1
XTAP_135 VGND VPWR sky130_fd_sc_hd__tapvpwrvgnd_1
XTAP_124 VGND VPWR sky130_fd_sc_hd__tapvpwrvgnd_1
XTAP_113 VGND VPWR sky130_fd_sc_hd__tapvpwrvgnd_1
XTAP_102 VGND VPWR sky130_fd_sc_hd__tapvpwrvgnd_1
X_292_ _292_/A1 _275_/Y _292_/B1 _277_/Y VGND VGND VPWR VPWR _292_/X sky130_fd_sc_hd__o22a_1
XFILLER_21_190 VGND VGND VPWR VPWR sky130_fd_sc_hd__decap_4
XFILLER_13_135 VGND VGND VPWR VPWR sky130_fd_sc_hd__decap_4
X_361_ _581_/Q VGND VGND VPWR VPWR _436_/A sky130_fd_sc_hd__clkbuf_2
X_430_ _430_/A VGND VGND VPWR VPWR _583_/D sky130_fd_sc_hd__clkbuf_1
XFILLER_12_190 VGND VGND VPWR VPWR sky130_fd_sc_hd__decap_4
X_559_ input11/X _559_/D VGND VGND VPWR VPWR _559_/Q sky130_fd_sc_hd__dfxtp_1
XFILLER_3_14 VGND VGND VPWR VPWR sky130_fd_sc_hd__decap_4
XFILLER_3_69 VGND VGND VPWR VPWR sky130_fd_sc_hd__decap_6
XFILLER_10_116 VGND VGND VPWR VPWR sky130_fd_sc_hd__decap_4
X_275_ _564_/Q VGND VGND VPWR VPWR _275_/Y sky130_fd_sc_hd__inv_2
X_344_ _473_/A _325_/Y _345_/A VGND VGND VPWR VPWR _344_/Y sky130_fd_sc_hd__a21oi_1
XFILLER_5_164 VGND VGND VPWR VPWR sky130_fd_sc_hd__decap_4
X_413_ _390_/D _497_/A _418_/A VGND VGND VPWR VPWR _414_/B sky130_fd_sc_hd__a21o_1
XFILLER_23_55 VGND VGND VPWR VPWR sky130_fd_sc_hd__fill_1
XFILLER_3_3 VGND VGND VPWR VPWR sky130_fd_sc_hd__decap_8
XFILLER_9_24 VGND VGND VPWR VPWR sky130_fd_sc_hd__decap_4
XFILLER_9_35 VGND VGND VPWR VPWR sky130_fd_sc_hd__decap_4
X_327_ _332_/A _578_/Q VGND VGND VPWR VPWR _327_/X sky130_fd_sc_hd__or2b_1
XFILLER_18_77 VGND VGND VPWR VPWR sky130_fd_sc_hd__decap_6
XFILLER_29_108 VGND VGND VPWR VPWR sky130_fd_sc_hd__decap_4
XFILLER_20_78 VGND VGND VPWR VPWR sky130_fd_sc_hd__decap_6
X_592_ input11/X _592_/D _545_/Y VGND VGND VPWR VPWR _592_/Q sky130_fd_sc_hd__dfrtp_1
XFILLER_19_152 VGND VGND VPWR VPWR sky130_fd_sc_hd__decap_4
Xoutput66 _613_/X VGND VGND VPWR VPWR dac[9] sky130_fd_sc_hd__buf_2
X_575_ _575_/CLK _575_/D _523_/Y VGND VGND VPWR VPWR _575_/Q sky130_fd_sc_hd__dfrtp_1
XFILLER_16_144 VGND VGND VPWR VPWR sky130_fd_sc_hd__decap_4
Xoutput44 _604_/A VGND VGND VPWR VPWR buffer_val[0] sky130_fd_sc_hd__buf_2
Xoutput55 _559_/Q VGND VGND VPWR VPWR corner[1] sky130_fd_sc_hd__buf_2
XTAP_169 VGND VPWR sky130_fd_sc_hd__tapvpwrvgnd_1
XFILLER_31_169 VGND VGND VPWR VPWR sky130_fd_sc_hd__decap_4
XFILLER_31_103 VGND VGND VPWR VPWR sky130_fd_sc_hd__decap_8
XTAP_158 VGND VPWR sky130_fd_sc_hd__tapvpwrvgnd_1
XTAP_147 VGND VPWR sky130_fd_sc_hd__tapvpwrvgnd_1
XTAP_136 VGND VPWR sky130_fd_sc_hd__tapvpwrvgnd_1
XTAP_125 VGND VPWR sky130_fd_sc_hd__tapvpwrvgnd_1
XTAP_114 VGND VPWR sky130_fd_sc_hd__tapvpwrvgnd_1
XTAP_103 VGND VPWR sky130_fd_sc_hd__tapvpwrvgnd_1
X_291_ _565_/Q VGND VGND VPWR VPWR _484_/A sky130_fd_sc_hd__inv_2
XFILLER_26_99 VGND VGND VPWR VPWR sky130_fd_sc_hd__fill_1
XFILLER_21_180 VGND VGND VPWR VPWR sky130_fd_sc_hd__decap_6
XFILLER_13_169 VGND VGND VPWR VPWR sky130_fd_sc_hd__decap_12
X_360_ _393_/A _377_/B VGND VGND VPWR VPWR _422_/A sky130_fd_sc_hd__nor2_1
X_489_ _567_/Q _489_/B VGND VGND VPWR VPWR _490_/B sky130_fd_sc_hd__nor2_1
X_558_ input11/X _558_/D VGND VGND VPWR VPWR _558_/Q sky130_fd_sc_hd__dfxtp_1
XFILLER_12_180 VGND VGND VPWR VPWR sky130_fd_sc_hd__decap_6
XFILLER_12_24 VGND VGND VPWR VPWR sky130_fd_sc_hd__decap_4
XFILLER_12_13 VGND VGND VPWR VPWR sky130_fd_sc_hd__fill_1
XFILLER_10_106 VGND VGND VPWR VPWR sky130_fd_sc_hd__fill_1
XFILLER_5_7 VGND VGND VPWR VPWR sky130_fd_sc_hd__decap_8
X_274_ _561_/Q VGND VGND VPWR VPWR _561_/D sky130_fd_sc_hd__inv_2
X_343_ _343_/A _580_/Q VGND VGND VPWR VPWR _345_/A sky130_fd_sc_hd__and2_1
X_412_ _417_/A _417_/B VGND VGND VPWR VPWR _418_/A sky130_fd_sc_hd__nor2_1
XFILLER_4_80 VGND VGND VPWR VPWR sky130_fd_sc_hd__decap_4
XFILLER_2_135 VGND VGND VPWR VPWR sky130_fd_sc_hd__decap_4
X_326_ _343_/A _580_/Q _579_/Q _325_/Y VGND VGND VPWR VPWR _345_/B sky130_fd_sc_hd__o22a_1
XFILLER_1_190 VGND VGND VPWR VPWR sky130_fd_sc_hd__decap_4
XFILLER_18_45 VGND VGND VPWR VPWR sky130_fd_sc_hd__decap_4
X_309_ _574_/Q VGND VGND VPWR VPWR _309_/Y sky130_fd_sc_hd__inv_2
XFILLER_1_92 VGND VGND VPWR VPWR sky130_fd_sc_hd__decap_4
XFILLER_29_55 VGND VGND VPWR VPWR sky130_fd_sc_hd__fill_1
X_591_ input11/X _593_/D _544_/Y VGND VGND VPWR VPWR _591_/Q sky130_fd_sc_hd__dfstp_1
XFILLER_6_15 VGND VGND VPWR VPWR sky130_fd_sc_hd__decap_6
XFILLER_19_186 VGND VGND VPWR VPWR sky130_fd_sc_hd__decap_8
XFILLER_20_7 VGND VGND VPWR VPWR sky130_fd_sc_hd__decap_4
XFILLER_31_45 VGND VGND VPWR VPWR sky130_fd_sc_hd__decap_4
XFILLER_25_134 VGND VGND VPWR VPWR sky130_fd_sc_hd__decap_8
XFILLER_25_123 VGND VGND VPWR VPWR sky130_fd_sc_hd__decap_4
XFILLER_15_57 VGND VGND VPWR VPWR sky130_fd_sc_hd__fill_1
XFILLER_15_13 VGND VGND VPWR VPWR sky130_fd_sc_hd__decap_4
Xoutput56 _560_/Q VGND VGND VPWR VPWR corner[2] sky130_fd_sc_hd__buf_2
Xoutput45 _605_/A VGND VGND VPWR VPWR buffer_val[1] sky130_fd_sc_hd__buf_2
Xoutput67 _592_/Q VGND VGND VPWR VPWR lock sky130_fd_sc_hd__buf_2
XFILLER_31_137 VGND VGND VPWR VPWR sky130_fd_sc_hd__decap_4
XTAP_159 VGND VPWR sky130_fd_sc_hd__tapvpwrvgnd_1
XTAP_148 VGND VPWR sky130_fd_sc_hd__tapvpwrvgnd_1
XTAP_137 VGND VPWR sky130_fd_sc_hd__tapvpwrvgnd_1
X_574_ _575_/CLK _574_/D _522_/Y VGND VGND VPWR VPWR _574_/Q sky130_fd_sc_hd__dfrtp_1
XTAP_126 VGND VPWR sky130_fd_sc_hd__tapvpwrvgnd_1
XTAP_115 VGND VPWR sky130_fd_sc_hd__tapvpwrvgnd_1
XTAP_104 VGND VPWR sky130_fd_sc_hd__tapvpwrvgnd_1
XFILLER_11_3 VGND VGND VPWR VPWR sky130_fd_sc_hd__decap_12
XFILLER_26_67 VGND VGND VPWR VPWR sky130_fd_sc_hd__decap_4
XFILLER_26_56 VGND VGND VPWR VPWR sky130_fd_sc_hd__decap_4
XFILLER_22_104 VGND VGND VPWR VPWR sky130_fd_sc_hd__decap_4
X_488_ _567_/Q _489_/B VGND VGND VPWR VPWR _492_/C sky130_fd_sc_hd__and2_1
X_290_ _288_/Y _563_/Q _290_/B1 _491_/A _289_/Y VGND VGND VPWR VPWR _296_/B sky130_fd_sc_hd__o221a_1
X_557_ _557_/A VGND VGND VPWR VPWR _557_/Y sky130_fd_sc_hd__inv_2
XFILLER_8_141 VGND VGND VPWR VPWR sky130_fd_sc_hd__decap_12
X_342_ _327_/X _334_/Y _338_/X _341_/X VGND VGND VPWR VPWR _342_/X sky130_fd_sc_hd__a22o_1
XFILLER_12_69 VGND VGND VPWR VPWR sky130_fd_sc_hd__decap_4
XFILLER_5_100 VGND VGND VPWR VPWR sky130_fd_sc_hd__decap_4
X_411_ _411_/A VGND VGND VPWR VPWR _587_/D sky130_fd_sc_hd__clkbuf_1
X_609_ _609_/A VGND VGND VPWR VPWR _609_/X sky130_fd_sc_hd__clkbuf_1
XFILLER_23_57 VGND VGND VPWR VPWR sky130_fd_sc_hd__fill_1
X_325_ _325_/A VGND VGND VPWR VPWR _325_/Y sky130_fd_sc_hd__inv_2
XFILLER_9_15 VGND VGND VPWR VPWR sky130_fd_sc_hd__decap_6
XFILLER_9_48 VGND VGND VPWR VPWR sky130_fd_sc_hd__decap_8
X_308_ _306_/Y input6/X input5/X _465_/A VGND VGND VPWR VPWR _308_/X sky130_fd_sc_hd__a22o_1
XFILLER_29_78 VGND VGND VPWR VPWR sky130_fd_sc_hd__decap_8
XFILLER_29_67 VGND VGND VPWR VPWR sky130_fd_sc_hd__decap_4
XFILLER_28_176 VGND VGND VPWR VPWR sky130_fd_sc_hd__decap_12
XFILLER_20_47 VGND VGND VPWR VPWR sky130_fd_sc_hd__decap_4
XFILLER_20_14 VGND VGND VPWR VPWR sky130_fd_sc_hd__decap_12
X_590_ input11/X _590_/D _542_/Y VGND VGND VPWR VPWR _590_/Q sky130_fd_sc_hd__dfrtp_1
XFILLER_10_80 VGND VGND VPWR VPWR sky130_fd_sc_hd__decap_4
XFILLER_31_57 VGND VGND VPWR VPWR sky130_fd_sc_hd__fill_1
Xoutput57 _604_/X VGND VGND VPWR VPWR dac[0] sky130_fd_sc_hd__buf_2
Xoutput46 _606_/A VGND VGND VPWR VPWR buffer_val[2] sky130_fd_sc_hd__buf_2
XFILLER_31_116 VGND VGND VPWR VPWR sky130_fd_sc_hd__decap_4
XTAP_149 VGND VPWR sky130_fd_sc_hd__tapvpwrvgnd_1
XFILLER_24_190 VGND VGND VPWR VPWR sky130_fd_sc_hd__decap_4
X_573_ _575_/CLK _573_/D _521_/Y VGND VGND VPWR VPWR _573_/Q sky130_fd_sc_hd__dfrtp_1
XTAP_138 VGND VPWR sky130_fd_sc_hd__tapvpwrvgnd_1
XTAP_127 VGND VPWR sky130_fd_sc_hd__tapvpwrvgnd_1
XTAP_116 VGND VPWR sky130_fd_sc_hd__tapvpwrvgnd_1
XTAP_105 VGND VPWR sky130_fd_sc_hd__tapvpwrvgnd_1
XFILLER_22_138 VGND VGND VPWR VPWR sky130_fd_sc_hd__fill_2
XFILLER_15_190 VGND VGND VPWR VPWR sky130_fd_sc_hd__decap_4
XFILLER_3_39 VGND VGND VPWR VPWR sky130_fd_sc_hd__decap_4
X_487_ _489_/B _487_/B VGND VGND VPWR VPWR _566_/D sky130_fd_sc_hd__nor2_1
X_556_ _557_/A VGND VGND VPWR VPWR _556_/Y sky130_fd_sc_hd__inv_2
XFILLER_8_131 VGND VGND VPWR VPWR sky130_fd_sc_hd__decap_8
XFILLER_8_153 VGND VGND VPWR VPWR sky130_fd_sc_hd__decap_12
X_341_ _341_/A _341_/B _341_/C _341_/D VGND VGND VPWR VPWR _341_/X sky130_fd_sc_hd__and4_1
X_410_ _383_/B _409_/Y _436_/B VGND VGND VPWR VPWR _411_/A sky130_fd_sc_hd__mux2_1
X_608_ _608_/A VGND VGND VPWR VPWR _608_/X sky130_fd_sc_hd__clkbuf_1
X_539_ _542_/A VGND VGND VPWR VPWR _539_/Y sky130_fd_sc_hd__inv_2
X_324_ _324_/A VGND VGND VPWR VPWR _343_/A sky130_fd_sc_hd__inv_2
XFILLER_0_29 VGND VGND VPWR VPWR sky130_fd_sc_hd__fill_2
XFILLER_2_115 VGND VGND VPWR VPWR sky130_fd_sc_hd__decap_4
XFILLER_18_69 VGND VGND VPWR VPWR sky130_fd_sc_hd__decap_4
X_307_ _575_/Q VGND VGND VPWR VPWR _465_/A sky130_fd_sc_hd__inv_2
XFILLER_1_83 VGND VGND VPWR VPWR sky130_fd_sc_hd__decap_6
XFILLER_29_57 VGND VGND VPWR VPWR sky130_fd_sc_hd__decap_6
XFILLER_28_188 VGND VGND VPWR VPWR sky130_fd_sc_hd__decap_6
XFILLER_28_144 VGND VGND VPWR VPWR sky130_fd_sc_hd__decap_6
XFILLER_20_26 VGND VGND VPWR VPWR sky130_fd_sc_hd__fill_2
XFILLER_19_133 VGND VGND VPWR VPWR sky130_fd_sc_hd__decap_8
XFILLER_31_69 VGND VGND VPWR VPWR sky130_fd_sc_hd__fill_1
Xoutput58 _605_/X VGND VGND VPWR VPWR dac[1] sky130_fd_sc_hd__buf_2
X_572_ _575_/CLK _572_/D _520_/Y VGND VGND VPWR VPWR _572_/Q sky130_fd_sc_hd__dfrtp_1
Xoutput47 _607_/A VGND VGND VPWR VPWR buffer_val[3] sky130_fd_sc_hd__buf_2
XTAP_139 VGND VPWR sky130_fd_sc_hd__tapvpwrvgnd_1
XTAP_128 VGND VPWR sky130_fd_sc_hd__tapvpwrvgnd_1
XTAP_117 VGND VPWR sky130_fd_sc_hd__tapvpwrvgnd_1
XTAP_106 VGND VPWR sky130_fd_sc_hd__tapvpwrvgnd_1
XPHY_0 VGND VGND VPWR VPWR sky130_fd_sc_hd__decap_3
XFILLER_13_128 VGND VGND VPWR VPWR sky130_fd_sc_hd__decap_4
XFILLER_13_106 VGND VGND VPWR VPWR sky130_fd_sc_hd__decap_6
X_486_ _565_/Q _485_/C _566_/Q VGND VGND VPWR VPWR _487_/B sky130_fd_sc_hd__a21oi_1
X_555_ _557_/A VGND VGND VPWR VPWR _555_/Y sky130_fd_sc_hd__inv_2
XFILLER_8_165 VGND VGND VPWR VPWR sky130_fd_sc_hd__decap_12
X_340_ _340_/A1 _465_/A _309_/Y _340_/B2 _327_/X VGND VGND VPWR VPWR _341_/D sky130_fd_sc_hd__o221a_1
X_607_ _607_/A VGND VGND VPWR VPWR _607_/X sky130_fd_sc_hd__clkbuf_1
X_538_ _542_/A VGND VGND VPWR VPWR _538_/Y sky130_fd_sc_hd__inv_2
XFILLER_23_15 VGND VGND VPWR VPWR sky130_fd_sc_hd__decap_12
X_469_ _577_/Q _470_/B VGND VGND VPWR VPWR _473_/C sky130_fd_sc_hd__and2_1
XFILLER_4_190 VGND VGND VPWR VPWR sky130_fd_sc_hd__decap_4
X_323_ _580_/Q _298_/Y _301_/X _322_/X VGND VGND VPWR VPWR _323_/X sky130_fd_sc_hd__a22o_1
XFILLER_13_92 VGND VGND VPWR VPWR sky130_fd_sc_hd__decap_6
XFILLER_1_182 VGND VGND VPWR VPWR sky130_fd_sc_hd__decap_4
XFILLER_18_15 VGND VGND VPWR VPWR sky130_fd_sc_hd__decap_12
X_306_ _576_/Q VGND VGND VPWR VPWR _306_/Y sky130_fd_sc_hd__inv_2
XFILLER_27_3 VGND VGND VPWR VPWR sky130_fd_sc_hd__decap_4
XFILLER_19_167 VGND VGND VPWR VPWR sky130_fd_sc_hd__fill_1
XFILLER_19_145 VGND VGND VPWR VPWR sky130_fd_sc_hd__decap_4
XFILLER_10_71 VGND VGND VPWR VPWR sky130_fd_sc_hd__decap_4
XFILLER_25_104 VGND VGND VPWR VPWR sky130_fd_sc_hd__decap_8
X_571_ _575_/CLK _571_/D _519_/Y VGND VGND VPWR VPWR _571_/Q sky130_fd_sc_hd__dfrtp_1
Xoutput59 _606_/X VGND VGND VPWR VPWR dac[2] sky130_fd_sc_hd__buf_2
Xoutput48 _608_/A VGND VGND VPWR VPWR buffer_val[4] sky130_fd_sc_hd__buf_2
XTAP_129 VGND VPWR sky130_fd_sc_hd__tapvpwrvgnd_1
XTAP_118 VGND VPWR sky130_fd_sc_hd__tapvpwrvgnd_1
XFILLER_15_181 VGND VGND VPWR VPWR sky130_fd_sc_hd__decap_6
XTAP_107 VGND VPWR sky130_fd_sc_hd__tapvpwrvgnd_1
XPHY_1 VGND VGND VPWR VPWR sky130_fd_sc_hd__decap_3
XFILLER_26_26 VGND VGND VPWR VPWR sky130_fd_sc_hd__fill_2
XFILLER_21_173 VGND VGND VPWR VPWR sky130_fd_sc_hd__decap_4
XFILLER_32_91 VGND VGND VPWR VPWR sky130_fd_sc_hd__decap_4
X_485_ _565_/Q _566_/Q _485_/C VGND VGND VPWR VPWR _489_/B sky130_fd_sc_hd__and3_1
X_554_ _554_/A VGND VGND VPWR VPWR _554_/Y sky130_fd_sc_hd__inv_2
XFILLER_8_177 VGND VGND VPWR VPWR sky130_fd_sc_hd__decap_12
XFILLER_12_17 VGND VGND VPWR VPWR sky130_fd_sc_hd__decap_4
XFILLER_5_169 VGND VGND VPWR VPWR sky130_fd_sc_hd__decap_12
X_468_ _470_/B _468_/B VGND VGND VPWR VPWR _576_/D sky130_fd_sc_hd__nor2_1
X_606_ _606_/A VGND VGND VPWR VPWR _606_/X sky130_fd_sc_hd__clkbuf_1
X_399_ _503_/A _388_/Y _436_/B VGND VGND VPWR VPWR _400_/A sky130_fd_sc_hd__mux2_1
XFILLER_4_73 VGND VGND VPWR VPWR sky130_fd_sc_hd__decap_4
X_537_ _557_/A VGND VGND VPWR VPWR _542_/A sky130_fd_sc_hd__buf_2
X_322_ _473_/B _303_/Y _301_/B _473_/A _321_/X VGND VGND VPWR VPWR _322_/X sky130_fd_sc_hd__a221o_1
XFILLER_23_27 VGND VGND VPWR VPWR sky130_fd_sc_hd__decap_4
XFILLER_2_128 VGND VGND VPWR VPWR sky130_fd_sc_hd__fill_1
XFILLER_2_139 VGND VGND VPWR VPWR sky130_fd_sc_hd__fill_1
XFILLER_29_7 VGND VGND VPWR VPWR sky130_fd_sc_hd__decap_12
XFILLER_13_60 VGND VGND VPWR VPWR sky130_fd_sc_hd__decap_4
XFILLER_1_172 VGND VGND VPWR VPWR sky130_fd_sc_hd__decap_6
XFILLER_1_161 VGND VGND VPWR VPWR sky130_fd_sc_hd__decap_6
XFILLER_18_27 VGND VGND VPWR VPWR sky130_fd_sc_hd__fill_1
X_305_ _305_/A _305_/B VGND VGND VPWR VPWR _305_/Y sky130_fd_sc_hd__nor2_1
XFILLER_1_52 VGND VGND VPWR VPWR sky130_fd_sc_hd__decap_4
XFILLER_28_113 VGND VGND VPWR VPWR sky130_fd_sc_hd__decap_4
XFILLER_27_190 VGND VGND VPWR VPWR sky130_fd_sc_hd__decap_4
XFILLER_19_179 VGND VGND VPWR VPWR sky130_fd_sc_hd__decap_4
XFILLER_19_92 VGND VGND VPWR VPWR sky130_fd_sc_hd__decap_4
XFILLER_31_38 VGND VGND VPWR VPWR sky130_fd_sc_hd__decap_4
X_570_ input11/X _570_/D _517_/Y VGND VGND VPWR VPWR _570_/Q sky130_fd_sc_hd__dfrtp_1
XFILLER_16_138 VGND VGND VPWR VPWR sky130_fd_sc_hd__fill_2
Xoutput49 _609_/A VGND VGND VPWR VPWR buffer_val[5] sky130_fd_sc_hd__buf_2
Xclkbuf_0_clk clk VGND VGND VPWR VPWR clkbuf_0_clk/X sky130_fd_sc_hd__clkbuf_16
XTAP_119 VGND VPWR sky130_fd_sc_hd__tapvpwrvgnd_1
XTAP_108 VGND VPWR sky130_fd_sc_hd__tapvpwrvgnd_1
XPHY_2 VGND VGND VPWR VPWR sky130_fd_sc_hd__decap_3
XFILLER_30_174 VGND VGND VPWR VPWR sky130_fd_sc_hd__decap_6
XFILLER_26_49 VGND VGND VPWR VPWR sky130_fd_sc_hd__decap_4
XFILLER_21_163 VGND VGND VPWR VPWR sky130_fd_sc_hd__decap_4
XFILLER_7_51 VGND VGND VPWR VPWR sky130_fd_sc_hd__decap_4
X_484_ _484_/A _485_/C VGND VGND VPWR VPWR _565_/D sky130_fd_sc_hd__xnor2_1
X_553_ _554_/A VGND VGND VPWR VPWR _553_/Y sky130_fd_sc_hd__inv_2
XFILLER_8_189 VGND VGND VPWR VPWR sky130_fd_sc_hd__decap_4
XFILLER_12_29 VGND VGND VPWR VPWR sky130_fd_sc_hd__decap_6
X_605_ _605_/A VGND VGND VPWR VPWR _605_/X sky130_fd_sc_hd__clkbuf_1
X_467_ _575_/Q _466_/C _576_/Q VGND VGND VPWR VPWR _468_/B sky130_fd_sc_hd__a21oi_1
X_398_ _434_/S VGND VGND VPWR VPWR _436_/B sky130_fd_sc_hd__clkbuf_2
XFILLER_4_85 VGND VGND VPWR VPWR sky130_fd_sc_hd__decap_6
X_536_ _536_/A VGND VGND VPWR VPWR _536_/Y sky130_fd_sc_hd__inv_2
X_321_ _473_/B _303_/Y _305_/Y _320_/Y VGND VGND VPWR VPWR _321_/X sky130_fd_sc_hd__o22a_1
X_519_ _523_/A VGND VGND VPWR VPWR _519_/Y sky130_fd_sc_hd__inv_2
X_304_ _577_/Q VGND VGND VPWR VPWR _305_/A sky130_fd_sc_hd__inv_2
XFILLER_20_29 VGND VGND VPWR VPWR sky130_fd_sc_hd__decap_8
XFILLER_29_49 VGND VGND VPWR VPWR sky130_fd_sc_hd__decap_6
XFILLER_28_169 VGND VGND VPWR VPWR sky130_fd_sc_hd__decap_4
XFILLER_28_158 VGND VGND VPWR VPWR sky130_fd_sc_hd__decap_4
XFILLER_28_136 VGND VGND VPWR VPWR sky130_fd_sc_hd__decap_4
XFILLER_28_125 VGND VGND VPWR VPWR sky130_fd_sc_hd__decap_4
XFILLER_21_94 VGND VGND VPWR VPWR sky130_fd_sc_hd__decap_6
XTAP_109 VGND VPWR sky130_fd_sc_hd__tapvpwrvgnd_1
XFILLER_30_120 VGND VGND VPWR VPWR sky130_fd_sc_hd__decap_6
XPHY_3 VGND VGND VPWR VPWR sky130_fd_sc_hd__decap_3
X_483_ _485_/C _483_/B VGND VGND VPWR VPWR _564_/D sky130_fd_sc_hd__nor2_1
XFILLER_16_83 VGND VGND VPWR VPWR sky130_fd_sc_hd__fill_1
X_552_ _554_/A VGND VGND VPWR VPWR _552_/Y sky130_fd_sc_hd__inv_2
XFILLER_8_124 VGND VGND VPWR VPWR sky130_fd_sc_hd__decap_4
XFILLER_5_116 VGND VGND VPWR VPWR sky130_fd_sc_hd__decap_12
X_604_ _604_/A VGND VGND VPWR VPWR _604_/X sky130_fd_sc_hd__clkbuf_1
X_466_ _576_/Q _575_/Q _466_/C VGND VGND VPWR VPWR _470_/B sky130_fd_sc_hd__and3_1
X_397_ _498_/B _498_/C VGND VGND VPWR VPWR _434_/S sky130_fd_sc_hd__nor2b_2
X_535_ _536_/A VGND VGND VPWR VPWR _535_/Y sky130_fd_sc_hd__inv_2
X_320_ _305_/A _305_/B _319_/X VGND VGND VPWR VPWR _320_/Y sky130_fd_sc_hd__a21oi_1
XFILLER_13_84 VGND VGND VPWR VPWR sky130_fd_sc_hd__decap_4
XFILLER_13_73 VGND VGND VPWR VPWR sky130_fd_sc_hd__decap_4
X_518_ _591_/Q VGND VGND VPWR VPWR _523_/A sky130_fd_sc_hd__buf_2
X_449_ _586_/Q _449_/A1 _457_/S VGND VGND VPWR VPWR _450_/A sky130_fd_sc_hd__mux2_1
XFILLER_1_7 VGND VGND VPWR VPWR sky130_fd_sc_hd__decap_8