Version 4
SHEET 1 1032 912
WIRE 80 144 0 144
WIRE 192 144 192 128
WIRE 192 144 160 144
WIRE 224 144 192 144
WIRE 432 144 368 144
WIRE -336 160 -336 96
WIRE 224 176 144 176
WIRE 464 176 368 176
WIRE 576 176 464 176
WIRE 736 176 656 176
WIRE 224 208 160 208
WIRE 432 208 368 208
WIRE 736 240 736 176
WIRE 736 240 576 240
WIRE 896 240 736 240
WIRE 976 240 896 240
WIRE 144 272 144 176
WIRE 192 272 144 272
WIRE 256 272 192 272
WIRE 464 272 464 176
WIRE 464 272 336 272
WIRE 576 272 576 240
WIRE 896 272 896 240
WIRE 976 272 976 240
WIRE 192 288 192 272
WIRE 464 288 464 272
WIRE 576 368 576 336
WIRE 576 368 544 368
WIRE 896 368 896 352
WIRE 944 368 896 368
WIRE 976 368 976 336
WIRE 976 368 944 368
WIRE 448 528 320 528
WIRE 640 528 448 528
WIRE 720 528 640 528
WIRE 320 560 320 528
WIRE 640 560 640 528
WIRE 720 560 720 528
WIRE -528 592 -528 544
WIRE 320 656 320 624
WIRE 320 656 288 656
WIRE 640 656 640 640
WIRE 688 656 640 656
WIRE 720 656 720 624
WIRE 720 656 688 656
WIRE -528 704 -528 672
WIRE 128 736 48 736
WIRE 448 736 448 528
WIRE 448 736 208 736
WIRE -64 752 -112 752
WIRE -192 768 -240 768
WIRE -64 784 -112 784
WIRE -192 800 -240 800
WIRE -528 816 -528 784
WIRE -64 816 -112 816
WIRE 48 816 48 736
WIRE 48 816 -64 816
WIRE -240 864 -240 800
WIRE -64 864 -64 816
WIRE -64 864 -240 864
FLAG -336 240 0
FLAG -528 672 0
FLAG 288 656 0
FLAG 688 656 0
FLAG -528 544 VDD
FLAG -336 96 VIN
FLAG -240 768 VIN
FLAG -528 816 VSS
FLAG -64 784 VSS
FLAG -64 752 VDD
FLAG 544 368 0
FLAG 944 368 0
FLAG 160 208 VDD
FLAG 432 144 VSS
FLAG 432 208 VDD
FLAG 0 144 VIN
FLAG 144 352 0
FLAG 192 352 0
FLAG 464 352 0
FLAG 192 64 0
SYMBOL voltage -528 576 R0
WINDOW 123 0 0 Left 0
WINDOW 39 0 0 Left 0
SYMATTR InstName V1
SYMATTR Value 3.3
SYMBOL voltage -336 144 R0
WINDOW 123 0 0 Left 0
WINDOW 39 0 0 Left 0
SYMATTR InstName V2
SYMATTR Value PULSE(0 1.8 0 10p 10p 5n 10n)
SYMBOL cap 304 560 R0
SYMATTR InstName C2
SYMATTR Value 1p
SYMBOL res 624 544 R0
SYMATTR InstName R1
SYMATTR Value 50
SYMBOL cap 704 560 R0
SYMATTR InstName C1
SYMATTR Value 10p
SYMBOL voltage -528 688 R0
WINDOW 123 0 0 Left 0
WINDOW 39 0 0 Left 0
SYMATTR InstName V3
SYMATTR Value 3.3
SYMBOL res 224 720 R90
WINDOW 0 0 56 VBottom 2
WINDOW 3 32 56 VTop 2
SYMATTR InstName R2
SYMATTR Value 50
SYMBOL AD8009an -160 784 R0
SYMATTR InstName U1
SYMBOL AD8000 288 176 R0
SYMATTR InstName U2
SYMBOL cap 560 272 R0
SYMATTR InstName C3
SYMATTR Value 1p
SYMBOL res 880 256 R0
SYMATTR InstName R3
SYMATTR Value 50
SYMBOL cap 960 272 R0
SYMATTR InstName C4
SYMATTR Value 10p
SYMBOL res 672 160 R90
WINDOW 0 0 56 VBottom 2
WINDOW 3 32 56 VTop 2
SYMATTR InstName R4
SYMATTR Value 50
SYMBOL res 176 128 R90
WINDOW 0 0 56 VBottom 2
WINDOW 3 32 56 VTop 2
SYMATTR InstName R5
SYMATTR Value 50
SYMBOL res 352 256 R90
WINDOW 0 0 56 VBottom 2
WINDOW 3 32 56 VTop 2
SYMATTR InstName R6
SYMATTR Value 432
SYMBOL res 160 368 R180
WINDOW 0 36 76 Left 2
WINDOW 3 36 40 Left 2
SYMATTR InstName R7
SYMATTR Value 432
SYMBOL cap 448 288 R0
SYMATTR InstName C5
SYMATTR Value 1p
SYMBOL cap 176 288 R0
SYMATTR InstName C6
SYMATTR Value 1p
SYMBOL cap 176 64 R0
SYMATTR InstName C7
SYMATTR Value 1p
TEXT -368 536 Left 2 !.tran 0 50n 0 0.1n
