* NGSPICE file created from shiftregister.ext - technology: sky130A

* Black-box entry subcircuit for sky130_fd_sc_hd__fill_2 abstract view
.subckt sky130_fd_sc_hd__fill_2 VGND VNB VPB VPWR
.ends

* Black-box entry subcircuit for sky130_fd_sc_hd__tapvpwrvgnd_1 abstract view
.subckt sky130_fd_sc_hd__tapvpwrvgnd_1 VGND VPWR
.ends

* Black-box entry subcircuit for sky130_fd_sc_hd__decap_12 abstract view
.subckt sky130_fd_sc_hd__decap_12 VGND VNB VPB VPWR
.ends

* Black-box entry subcircuit for sky130_fd_sc_hd__decap_8 abstract view
.subckt sky130_fd_sc_hd__decap_8 VGND VNB VPB VPWR
.ends

* Black-box entry subcircuit for sky130_fd_sc_hd__decap_4 abstract view
.subckt sky130_fd_sc_hd__decap_4 VGND VNB VPB VPWR
.ends

* Black-box entry subcircuit for sky130_fd_sc_hd__fill_1 abstract view
.subckt sky130_fd_sc_hd__fill_1 VGND VNB VPB VPWR
.ends

* Black-box entry subcircuit for sky130_fd_sc_hd__mux2_1 abstract view
.subckt sky130_fd_sc_hd__mux2_1 A0 A1 S VGND VNB VPB VPWR X
.ends

* Black-box entry subcircuit for sky130_fd_sc_hd__decap_6 abstract view
.subckt sky130_fd_sc_hd__decap_6 VGND VNB VPB VPWR
.ends

* Black-box entry subcircuit for sky130_fd_sc_hd__inv_2 abstract view
.subckt sky130_fd_sc_hd__inv_2 A VGND VNB VPB VPWR Y
.ends

* Black-box entry subcircuit for sky130_fd_sc_hd__clkbuf_2 abstract view
.subckt sky130_fd_sc_hd__clkbuf_2 A VGND VNB VPB VPWR X
.ends

* Black-box entry subcircuit for sky130_fd_sc_hd__dlymetal6s2s_1 abstract view
.subckt sky130_fd_sc_hd__dlymetal6s2s_1 A VGND VNB VPB VPWR X
.ends

* Black-box entry subcircuit for sky130_fd_sc_hd__clkbuf_1 abstract view
.subckt sky130_fd_sc_hd__clkbuf_1 A VGND VNB VPB VPWR X
.ends

* Black-box entry subcircuit for sky130_fd_sc_hd__decap_3 abstract view
.subckt sky130_fd_sc_hd__decap_3 VGND VNB VPB VPWR
.ends

* Black-box entry subcircuit for sky130_fd_sc_hd__dfrtp_1 abstract view
.subckt sky130_fd_sc_hd__dfrtp_1 CLK D RESET_B VGND VNB VPB VPWR Q
.ends

* Black-box entry subcircuit for sky130_fd_sc_hd__buf_2 abstract view
.subckt sky130_fd_sc_hd__buf_2 A VGND VNB VPB VPWR X
.ends

* Black-box entry subcircuit for sky130_fd_sc_hd__diode_2 abstract view
.subckt sky130_fd_sc_hd__diode_2 DIODE VGND VNB VPB VPWR
.ends

* Black-box entry subcircuit for sky130_fd_sc_hd__dfrtp_2 abstract view
.subckt sky130_fd_sc_hd__dfrtp_2 CLK D RESET_B VGND VNB VPB VPWR Q
.ends

* Black-box entry subcircuit for sky130_fd_sc_hd__dfrtp_4 abstract view
.subckt sky130_fd_sc_hd__dfrtp_4 CLK D RESET_B VGND VNB VPB VPWR Q
.ends

* Black-box entry subcircuit for sky130_fd_sc_hd__clkbuf_16 abstract view
.subckt sky130_fd_sc_hd__clkbuf_16 A VGND VNB VPB VPWR X
.ends

* Black-box entry subcircuit for sky130_fd_sc_hd__clkbuf_4 abstract view
.subckt sky130_fd_sc_hd__clkbuf_4 A VGND VNB VPB VPWR X
.ends

* Black-box entry subcircuit for sky130_fd_sc_hd__mux2_2 abstract view
.subckt sky130_fd_sc_hd__mux2_2 A0 A1 S VGND VNB VPB VPWR X
.ends

.subckt shiftregister VGND VPWR clk load r_load[0] r_load[10] r_load[11] r_load[12]
+ r_load[13] r_load[14] r_load[15] r_load[16] r_load[17] r_load[18] r_load[19] r_load[1]
+ r_load[20] r_load[21] r_load[22] r_load[23] r_load[24] r_load[25] r_load[26] r_load[27]
+ r_load[28] r_load[29] r_load[2] r_load[30] r_load[31] r_load[32] r_load[33] r_load[34]
+ r_load[35] r_load[36] r_load[37] r_load[38] r_load[39] r_load[3] r_load[40] r_load[41]
+ r_load[42] r_load[43] r_load[44] r_load[45] r_load[46] r_load[47] r_load[48] r_load[49]
+ r_load[4] r_load[50] r_load[51] r_load[52] r_load[53] r_load[54] r_load[55] r_load[56]
+ r_load[57] r_load[58] r_load[59] r_load[5] r_load[60] r_load[61] r_load[62] r_load[63]
+ r_load[64] r_load[65] r_load[66] r_load[67] r_load[68] r_load[69] r_load[6] r_load[70]
+ r_load[71] r_load[72] r_load[73] r_load[74] r_load[75] r_load[76] r_load[77] r_load[78]
+ r_load[79] r_load[7] r_load[80] r_load[81] r_load[82] r_load[83] r_load[84] r_load[85]
+ r_load[86] r_load[87] r_load[88] r_load[89] r_load[8] r_load[90] r_load[91] r_load[92]
+ r_load[93] r_load[94] r_load[95] r_load[96] r_load[97] r_load[98] r_load[99] r_load[9]
+ r_read[0] r_read[10] r_read[11] r_read[12] r_read[13] r_read[14] r_read[15] r_read[16]
+ r_read[17] r_read[18] r_read[19] r_read[1] r_read[20] r_read[21] r_read[22] r_read[23]
+ r_read[24] r_read[25] r_read[26] r_read[27] r_read[28] r_read[29] r_read[2] r_read[30]
+ r_read[31] r_read[32] r_read[33] r_read[34] r_read[35] r_read[36] r_read[37] r_read[38]
+ r_read[39] r_read[3] r_read[40] r_read[41] r_read[42] r_read[43] r_read[44] r_read[45]
+ r_read[46] r_read[47] r_read[48] r_read[49] r_read[4] r_read[50] r_read[51] r_read[52]
+ r_read[53] r_read[54] r_read[55] r_read[56] r_read[57] r_read[58] r_read[59] r_read[5]
+ r_read[60] r_read[61] r_read[62] r_read[63] r_read[64] r_read[65] r_read[66] r_read[67]
+ r_read[68] r_read[69] r_read[6] r_read[70] r_read[71] r_read[72] r_read[73] r_read[74]
+ r_read[75] r_read[76] r_read[77] r_read[78] r_read[79] r_read[7] r_read[80] r_read[81]
+ r_read[82] r_read[83] r_read[84] r_read[85] r_read[86] r_read[87] r_read[88] r_read[89]
+ r_read[8] r_read[90] r_read[91] r_read[92] r_read[93] r_read[94] r_read[95] r_read[96]
+ r_read[97] r_read[98] r_read[99] r_read[9] read reset s_in s_out
XFILLER_39_222 VGND VGND VPWR VPWR sky130_fd_sc_hd__fill_2
XTAP_177 VGND VPWR sky130_fd_sc_hd__tapvpwrvgnd_1
XTAP_188 VGND VPWR sky130_fd_sc_hd__tapvpwrvgnd_1
XTAP_199 VGND VPWR sky130_fd_sc_hd__tapvpwrvgnd_1
XFILLER_52_29 VGND VGND VPWR VPWR sky130_fd_sc_hd__decap_12
XFILLER_52_18 VGND VGND VPWR VPWR sky130_fd_sc_hd__decap_8
XFILLER_22_111 VGND VGND VPWR VPWR sky130_fd_sc_hd__decap_4
XFILLER_45_225 VGND VGND VPWR VPWR sky130_fd_sc_hd__fill_2
XFILLER_45_203 VGND VGND VPWR VPWR sky130_fd_sc_hd__decap_8
XFILLER_13_111 VGND VGND VPWR VPWR sky130_fd_sc_hd__fill_1
XFILLER_13_122 VGND VGND VPWR VPWR sky130_fd_sc_hd__fill_2
XFILLER_9_148 VGND VGND VPWR VPWR sky130_fd_sc_hd__decap_4
XFILLER_3_23 VGND VGND VPWR VPWR sky130_fd_sc_hd__decap_4
XFILLER_36_236 VGND VGND VPWR VPWR sky130_fd_sc_hd__decap_4
X_1270_ _1699_/Q _1799_/Q _1270_/S VGND VGND VPWR VPWR _1271_/A sky130_fd_sc_hd__mux2_1
XFILLER_3_89 VGND VGND VPWR VPWR sky130_fd_sc_hd__decap_6
XFILLER_51_228 VGND VGND VPWR VPWR sky130_fd_sc_hd__decap_4
X_0985_ _1798_/Q input50/X _0994_/S VGND VGND VPWR VPWR _0985_/X sky130_fd_sc_hd__mux2_1
XFILLER_8_192 VGND VGND VPWR VPWR sky130_fd_sc_hd__decap_4
X_1606_ _1606_/A VGND VGND VPWR VPWR _1606_/Y sky130_fd_sc_hd__inv_2
X_1537_ _1538_/A VGND VGND VPWR VPWR _1537_/Y sky130_fd_sc_hd__inv_2
XFILLER_47_18 VGND VGND VPWR VPWR sky130_fd_sc_hd__decap_12
X_1399_ _1402_/A VGND VGND VPWR VPWR _1399_/Y sky130_fd_sc_hd__inv_2
X_1468_ _1470_/A VGND VGND VPWR VPWR _1468_/Y sky130_fd_sc_hd__inv_2
XFILLER_6_129 VGND VGND VPWR VPWR sky130_fd_sc_hd__decap_4
XFILLER_10_158 VGND VGND VPWR VPWR sky130_fd_sc_hd__decap_4
XFILLER_2_346 VGND VGND VPWR VPWR sky130_fd_sc_hd__decap_4
XFILLER_2_324 VGND VGND VPWR VPWR sky130_fd_sc_hd__decap_4
XFILLER_18_236 VGND VGND VPWR VPWR sky130_fd_sc_hd__decap_4
XFILLER_18_258 VGND VGND VPWR VPWR sky130_fd_sc_hd__decap_4
XFILLER_53_50 VGND VGND VPWR VPWR sky130_fd_sc_hd__decap_6
XFILLER_37_95 VGND VGND VPWR VPWR sky130_fd_sc_hd__decap_4
XFILLER_52_6 VGND VGND VPWR VPWR sky130_fd_sc_hd__decap_12
XFILLER_5_162 VGND VGND VPWR VPWR sky130_fd_sc_hd__decap_6
X_1322_ _1676_/Q _1776_/Q _1326_/S VGND VGND VPWR VPWR _1323_/A sky130_fd_sc_hd__mux2_1
X_1253_ _1707_/Q _1807_/Q _1259_/S VGND VGND VPWR VPWR _1254_/A sky130_fd_sc_hd__mux2_1
X_1184_ _1738_/Q _1838_/Q _1192_/S VGND VGND VPWR VPWR _1185_/A sky130_fd_sc_hd__mux2_1
Xclkbuf_4_12_0_clk clkbuf_3_6_0_clk/X VGND VGND VPWR VPWR _1833_/CLK sky130_fd_sc_hd__clkbuf_2
XFILLER_32_294 VGND VGND VPWR VPWR sky130_fd_sc_hd__decap_4
X_0968_ _1803_/Q input55/X _0977_/S VGND VGND VPWR VPWR _0968_/X sky130_fd_sc_hd__mux2_1
X_0899_ _0898_/X _1822_/Q _0908_/S VGND VGND VPWR VPWR _0900_/A sky130_fd_sc_hd__mux2_1
XFILLER_23_97 VGND VGND VPWR VPWR sky130_fd_sc_hd__decap_4
XFILLER_38_309 VGND VGND VPWR VPWR sky130_fd_sc_hd__decap_12
XFILLER_2_121 VGND VGND VPWR VPWR sky130_fd_sc_hd__decap_12
XFILLER_48_94 VGND VGND VPWR VPWR sky130_fd_sc_hd__decap_4
XFILLER_0_24 VGND VGND VPWR VPWR sky130_fd_sc_hd__decap_4
XFILLER_0_57 VGND VGND VPWR VPWR sky130_fd_sc_hd__fill_2
X_0822_ _1084_/A VGND VGND VPWR VPWR _0893_/A sky130_fd_sc_hd__dlymetal6s2s_1
XFILLER_9_11 VGND VGND VPWR VPWR sky130_fd_sc_hd__decap_12
XFILLER_9_55 VGND VGND VPWR VPWR sky130_fd_sc_hd__fill_1
Xclkbuf_3_1_0_clk clkbuf_0_clk/X VGND VGND VPWR VPWR clkbuf_4_3_0_clk/A sky130_fd_sc_hd__clkbuf_2
XFILLER_56_117 VGND VGND VPWR VPWR sky130_fd_sc_hd__decap_8
XFILLER_37_320 VGND VGND VPWR VPWR sky130_fd_sc_hd__decap_12
X_1305_ _1305_/A VGND VGND VPWR VPWR _1684_/D sky130_fd_sc_hd__clkbuf_1
X_1236_ _1236_/A VGND VGND VPWR VPWR _1715_/D sky130_fd_sc_hd__clkbuf_1
X_1167_ _1167_/A VGND VGND VPWR VPWR _1745_/D sky130_fd_sc_hd__clkbuf_1
X_1098_ _1097_/X _1765_/Q _1101_/S VGND VGND VPWR VPWR _1099_/A sky130_fd_sc_hd__mux2_1
XFILLER_20_253 VGND VGND VPWR VPWR sky130_fd_sc_hd__decap_3
XFILLER_47_106 VGND VGND VPWR VPWR sky130_fd_sc_hd__decap_6
XFILLER_34_85 VGND VGND VPWR VPWR sky130_fd_sc_hd__fill_2
XFILLER_34_63 VGND VGND VPWR VPWR sky130_fd_sc_hd__fill_1
XFILLER_7_268 VGND VGND VPWR VPWR sky130_fd_sc_hd__decap_4
XFILLER_22_7 VGND VGND VPWR VPWR sky130_fd_sc_hd__decap_12
XFILLER_46_183 VGND VGND VPWR VPWR sky130_fd_sc_hd__decap_4
X_1021_ _1788_/Q input39/X _1030_/S VGND VGND VPWR VPWR _1021_/X sky130_fd_sc_hd__mux2_1
X_1785_ _1793_/CLK _1785_/D _1572_/Y VGND VGND VPWR VPWR _1785_/Q sky130_fd_sc_hd__dfrtp_1
X_1219_ _1722_/Q _1822_/Q _1225_/S VGND VGND VPWR VPWR _1220_/A sky130_fd_sc_hd__mux2_1
XFILLER_29_74 VGND VGND VPWR VPWR sky130_fd_sc_hd__decap_6
XFILLER_29_41 VGND VGND VPWR VPWR sky130_fd_sc_hd__fill_1
XFILLER_29_30 VGND VGND VPWR VPWR sky130_fd_sc_hd__decap_4
XFILLER_20_98 VGND VGND VPWR VPWR sky130_fd_sc_hd__decap_4
XFILLER_45_95 VGND VGND VPWR VPWR sky130_fd_sc_hd__decap_8
XFILLER_43_164 VGND VGND VPWR VPWR sky130_fd_sc_hd__decap_4
XFILLER_43_153 VGND VGND VPWR VPWR sky130_fd_sc_hd__decap_8
XFILLER_28_183 VGND VGND VPWR VPWR sky130_fd_sc_hd__decap_6
XFILLER_16_312 VGND VGND VPWR VPWR sky130_fd_sc_hd__decap_4
XFILLER_31_337 VGND VGND VPWR VPWR sky130_fd_sc_hd__decap_6
XTAP_348 VGND VPWR sky130_fd_sc_hd__tapvpwrvgnd_1
XTAP_337 VGND VPWR sky130_fd_sc_hd__tapvpwrvgnd_1
XTAP_326 VGND VPWR sky130_fd_sc_hd__tapvpwrvgnd_1
XTAP_315 VGND VPWR sky130_fd_sc_hd__tapvpwrvgnd_1
XTAP_304 VGND VPWR sky130_fd_sc_hd__tapvpwrvgnd_1
X_1570_ _1576_/A VGND VGND VPWR VPWR _1575_/A sky130_fd_sc_hd__buf_2
XANTENNA_5 input22/X VGND VGND VPWR VPWR sky130_fd_sc_hd__diode_2
XTAP_359 VGND VPWR sky130_fd_sc_hd__tapvpwrvgnd_1
XFILLER_13_3 VGND VGND VPWR VPWR sky130_fd_sc_hd__decap_12
XFILLER_34_197 VGND VGND VPWR VPWR sky130_fd_sc_hd__decap_4
X_1004_ _1793_/Q input44/X _1013_/S VGND VGND VPWR VPWR _1004_/X sky130_fd_sc_hd__mux2_1
XFILLER_22_304 VGND VGND VPWR VPWR sky130_fd_sc_hd__decap_4
X_1768_ _1768_/CLK _1768_/D _1550_/Y VGND VGND VPWR VPWR _1768_/Q sky130_fd_sc_hd__dfrtp_1
X_1837_ _1837_/CLK _1837_/D _1636_/Y VGND VGND VPWR VPWR _1837_/Q sky130_fd_sc_hd__dfrtp_1
XFILLER_57_223 VGND VGND VPWR VPWR sky130_fd_sc_hd__fill_1
X_1699_ _1822_/CLK _1699_/D _1466_/Y VGND VGND VPWR VPWR _1699_/Q sky130_fd_sc_hd__dfrtp_2
XFILLER_1_219 VGND VGND VPWR VPWR sky130_fd_sc_hd__decap_4
XFILLER_25_164 VGND VGND VPWR VPWR sky130_fd_sc_hd__decap_4
XFILLER_25_131 VGND VGND VPWR VPWR sky130_fd_sc_hd__fill_1
XFILLER_13_315 VGND VGND VPWR VPWR sky130_fd_sc_hd__decap_4
XFILLER_15_43 VGND VGND VPWR VPWR sky130_fd_sc_hd__decap_12
XFILLER_48_234 VGND VGND VPWR VPWR sky130_fd_sc_hd__decap_4
XFILLER_48_201 VGND VGND VPWR VPWR sky130_fd_sc_hd__decap_4
XFILLER_56_94 VGND VGND VPWR VPWR sky130_fd_sc_hd__decap_4
XFILLER_31_167 VGND VGND VPWR VPWR sky130_fd_sc_hd__fill_1
XFILLER_16_175 VGND VGND VPWR VPWR sky130_fd_sc_hd__fill_1
XFILLER_16_197 VGND VGND VPWR VPWR sky130_fd_sc_hd__decap_3
X_1622_ _1625_/A VGND VGND VPWR VPWR _1622_/Y sky130_fd_sc_hd__inv_2
XFILLER_31_189 VGND VGND VPWR VPWR sky130_fd_sc_hd__decap_4
XFILLER_39_234 VGND VGND VPWR VPWR sky130_fd_sc_hd__decap_6
X_1553_ _1557_/A VGND VGND VPWR VPWR _1553_/Y sky130_fd_sc_hd__inv_2
X_1484_ _1488_/A VGND VGND VPWR VPWR _1484_/Y sky130_fd_sc_hd__inv_2
XTAP_145 VGND VPWR sky130_fd_sc_hd__tapvpwrvgnd_1
XTAP_134 VGND VPWR sky130_fd_sc_hd__tapvpwrvgnd_1
XTAP_123 VGND VPWR sky130_fd_sc_hd__tapvpwrvgnd_1
XTAP_156 VGND VPWR sky130_fd_sc_hd__tapvpwrvgnd_1
XTAP_167 VGND VPWR sky130_fd_sc_hd__tapvpwrvgnd_1
XTAP_178 VGND VPWR sky130_fd_sc_hd__tapvpwrvgnd_1
XTAP_189 VGND VPWR sky130_fd_sc_hd__tapvpwrvgnd_1
XFILLER_54_215 VGND VGND VPWR VPWR sky130_fd_sc_hd__decap_4
XFILLER_39_267 VGND VGND VPWR VPWR sky130_fd_sc_hd__decap_12
XFILLER_53_281 VGND VGND VPWR VPWR sky130_fd_sc_hd__decap_12
XFILLER_42_85 VGND VGND VPWR VPWR sky130_fd_sc_hd__decap_4
XFILLER_9_138 VGND VGND VPWR VPWR sky130_fd_sc_hd__fill_1
XFILLER_13_178 VGND VGND VPWR VPWR sky130_fd_sc_hd__decap_6
XFILLER_3_57 VGND VGND VPWR VPWR sky130_fd_sc_hd__decap_8
X_0984_ _0984_/A VGND VGND VPWR VPWR _1798_/D sky130_fd_sc_hd__clkbuf_1
X_1536_ _1538_/A VGND VGND VPWR VPWR _1536_/Y sky130_fd_sc_hd__inv_2
XFILLER_8_171 VGND VGND VPWR VPWR sky130_fd_sc_hd__decap_4
X_1605_ _1606_/A VGND VGND VPWR VPWR _1605_/Y sky130_fd_sc_hd__inv_2
X_1398_ _1402_/A VGND VGND VPWR VPWR _1398_/Y sky130_fd_sc_hd__inv_2
X_1467_ _1470_/A VGND VGND VPWR VPWR _1467_/Y sky130_fd_sc_hd__inv_2
XFILLER_50_251 VGND VGND VPWR VPWR sky130_fd_sc_hd__fill_1
XFILLER_35_292 VGND VGND VPWR VPWR sky130_fd_sc_hd__decap_12
XFILLER_50_262 VGND VGND VPWR VPWR sky130_fd_sc_hd__decap_4
XFILLER_6_119 VGND VGND VPWR VPWR sky130_fd_sc_hd__fill_1
XFILLER_12_99 VGND VGND VPWR VPWR sky130_fd_sc_hd__fill_1
XFILLER_37_30 VGND VGND VPWR VPWR sky130_fd_sc_hd__decap_8
XFILLER_45_6 VGND VGND VPWR VPWR sky130_fd_sc_hd__decap_12
XFILLER_5_141 VGND VGND VPWR VPWR sky130_fd_sc_hd__decap_4
XFILLER_5_196 VGND VGND VPWR VPWR sky130_fd_sc_hd__decap_4
X_1321_ _1321_/A VGND VGND VPWR VPWR _1677_/D sky130_fd_sc_hd__clkbuf_1
X_1252_ _1252_/A VGND VGND VPWR VPWR _1708_/D sky130_fd_sc_hd__clkbuf_1
X_1183_ _1216_/A VGND VGND VPWR VPWR _1192_/S sky130_fd_sc_hd__clkbuf_2
XFILLER_17_281 VGND VGND VPWR VPWR sky130_fd_sc_hd__decap_6
XFILLER_32_251 VGND VGND VPWR VPWR sky130_fd_sc_hd__fill_1
X_0967_ _0967_/A VGND VGND VPWR VPWR _1803_/D sky130_fd_sc_hd__clkbuf_1
XFILLER_58_29 VGND VGND VPWR VPWR sky130_fd_sc_hd__decap_4
X_1519_ _1519_/A VGND VGND VPWR VPWR _1519_/Y sky130_fd_sc_hd__inv_2
X_0898_ _1823_/Q input77/X _0907_/S VGND VGND VPWR VPWR _0898_/X sky130_fd_sc_hd__mux2_1
XFILLER_55_332 VGND VGND VPWR VPWR sky130_fd_sc_hd__decap_4
XFILLER_15_218 VGND VGND VPWR VPWR sky130_fd_sc_hd__decap_6
XFILLER_2_133 VGND VGND VPWR VPWR sky130_fd_sc_hd__decap_6
XFILLER_46_321 VGND VGND VPWR VPWR sky130_fd_sc_hd__decap_12
XFILLER_0_69 VGND VGND VPWR VPWR sky130_fd_sc_hd__decap_6
XFILLER_9_23 VGND VGND VPWR VPWR sky130_fd_sc_hd__decap_12
XFILLER_9_78 VGND VGND VPWR VPWR sky130_fd_sc_hd__decap_4
XFILLER_43_3 VGND VGND VPWR VPWR sky130_fd_sc_hd__decap_12
XFILLER_56_129 VGND VGND VPWR VPWR sky130_fd_sc_hd__decap_4
XFILLER_56_107 VGND VGND VPWR VPWR sky130_fd_sc_hd__decap_6
X_1166_ _1165_/X _1745_/Q _1169_/S VGND VGND VPWR VPWR _1167_/A sky130_fd_sc_hd__mux2_1
XFILLER_37_332 VGND VGND VPWR VPWR sky130_fd_sc_hd__decap_4
X_1304_ _1684_/Q _1784_/Q _1304_/S VGND VGND VPWR VPWR _1305_/A sky130_fd_sc_hd__mux2_1
X_1235_ _1715_/Q _1815_/Q _1237_/S VGND VGND VPWR VPWR _1236_/A sky130_fd_sc_hd__mux2_1
XFILLER_52_346 VGND VGND VPWR VPWR sky130_fd_sc_hd__decap_4
X_1097_ _1766_/Q input15/X _1100_/S VGND VGND VPWR VPWR _1097_/X sky130_fd_sc_hd__mux2_1
XFILLER_20_210 VGND VGND VPWR VPWR sky130_fd_sc_hd__decap_6
XFILLER_20_265 VGND VGND VPWR VPWR sky130_fd_sc_hd__decap_4
XFILLER_55_162 VGND VGND VPWR VPWR sky130_fd_sc_hd__decap_6
XFILLER_43_335 VGND VGND VPWR VPWR sky130_fd_sc_hd__fill_1
XFILLER_34_20 VGND VGND VPWR VPWR sky130_fd_sc_hd__decap_8
XFILLER_28_321 VGND VGND VPWR VPWR sky130_fd_sc_hd__decap_12
XFILLER_11_276 VGND VGND VPWR VPWR sky130_fd_sc_hd__decap_4
XFILLER_50_85 VGND VGND VPWR VPWR sky130_fd_sc_hd__fill_2
Xclkbuf_4_11_0_clk clkbuf_3_5_0_clk/X VGND VGND VPWR VPWR _1763_/CLK sky130_fd_sc_hd__clkbuf_2
XFILLER_15_7 VGND VGND VPWR VPWR sky130_fd_sc_hd__decap_12
X_1020_ _1020_/A VGND VGND VPWR VPWR _1788_/D sky130_fd_sc_hd__clkbuf_1
XFILLER_34_346 VGND VGND VPWR VPWR sky130_fd_sc_hd__decap_4
X_1784_ _1790_/CLK _1784_/D _1571_/Y VGND VGND VPWR VPWR _1784_/Q sky130_fd_sc_hd__dfrtp_1
X_1149_ _1148_/X _1750_/Q _1152_/S VGND VGND VPWR VPWR _1150_/A sky130_fd_sc_hd__mux2_1
X_1218_ _1218_/A VGND VGND VPWR VPWR _1723_/D sky130_fd_sc_hd__clkbuf_1
XFILLER_25_346 VGND VGND VPWR VPWR sky130_fd_sc_hd__decap_4
XFILLER_4_217 VGND VGND VPWR VPWR sky130_fd_sc_hd__fill_2
XFILLER_29_53 VGND VGND VPWR VPWR sky130_fd_sc_hd__decap_3
XFILLER_45_63 VGND VGND VPWR VPWR sky130_fd_sc_hd__decap_4
XFILLER_45_52 VGND VGND VPWR VPWR sky130_fd_sc_hd__decap_4
XFILLER_45_30 VGND VGND VPWR VPWR sky130_fd_sc_hd__fill_2
XFILLER_43_143 VGND VGND VPWR VPWR sky130_fd_sc_hd__fill_1
XFILLER_43_132 VGND VGND VPWR VPWR sky130_fd_sc_hd__decap_4
Xclkbuf_3_0_0_clk clkbuf_0_clk/X VGND VGND VPWR VPWR clkbuf_4_1_0_clk/A sky130_fd_sc_hd__clkbuf_2
XFILLER_16_346 VGND VGND VPWR VPWR sky130_fd_sc_hd__decap_4
XANTENNA_6 input26/X VGND VGND VPWR VPWR sky130_fd_sc_hd__diode_2
XTAP_349 VGND VPWR sky130_fd_sc_hd__tapvpwrvgnd_1
XTAP_338 VGND VPWR sky130_fd_sc_hd__tapvpwrvgnd_1
XTAP_327 VGND VPWR sky130_fd_sc_hd__tapvpwrvgnd_1
XTAP_316 VGND VPWR sky130_fd_sc_hd__tapvpwrvgnd_1
XTAP_305 VGND VPWR sky130_fd_sc_hd__tapvpwrvgnd_1
X_1003_ _1003_/A VGND VGND VPWR VPWR _1793_/D sky130_fd_sc_hd__clkbuf_1
X_1767_ _1837_/CLK _1767_/D _1549_/Y VGND VGND VPWR VPWR _1767_/Q sky130_fd_sc_hd__dfrtp_1
X_1698_ _1803_/CLK _1698_/D _1464_/Y VGND VGND VPWR VPWR _1698_/Q sky130_fd_sc_hd__dfrtp_2
X_1836_ _1837_/CLK _1836_/D _1635_/Y VGND VGND VPWR VPWR _1836_/Q sky130_fd_sc_hd__dfrtp_1
XFILLER_57_279 VGND VGND VPWR VPWR sky130_fd_sc_hd__fill_1
XFILLER_15_55 VGND VGND VPWR VPWR sky130_fd_sc_hd__fill_1
XFILLER_16_132 VGND VGND VPWR VPWR sky130_fd_sc_hd__decap_8
XFILLER_31_113 VGND VGND VPWR VPWR sky130_fd_sc_hd__decap_6
X_1621_ _1625_/A VGND VGND VPWR VPWR _1621_/Y sky130_fd_sc_hd__inv_2
X_1552_ _1576_/A VGND VGND VPWR VPWR _1557_/A sky130_fd_sc_hd__buf_2
XTAP_146 VGND VPWR sky130_fd_sc_hd__tapvpwrvgnd_1
XTAP_135 VGND VPWR sky130_fd_sc_hd__tapvpwrvgnd_1
XTAP_124 VGND VPWR sky130_fd_sc_hd__tapvpwrvgnd_1
XTAP_157 VGND VPWR sky130_fd_sc_hd__tapvpwrvgnd_1
XTAP_168 VGND VPWR sky130_fd_sc_hd__tapvpwrvgnd_1
XTAP_179 VGND VPWR sky130_fd_sc_hd__tapvpwrvgnd_1
X_1483_ _1483_/A VGND VGND VPWR VPWR _1488_/A sky130_fd_sc_hd__buf_2
XFILLER_54_249 VGND VGND VPWR VPWR sky130_fd_sc_hd__decap_3
XFILLER_39_279 VGND VGND VPWR VPWR sky130_fd_sc_hd__fill_1
XFILLER_22_124 VGND VGND VPWR VPWR sky130_fd_sc_hd__decap_4
X_1819_ _1822_/CLK _1819_/D _1615_/Y VGND VGND VPWR VPWR _1819_/Q sky130_fd_sc_hd__dfrtp_1
XFILLER_53_293 VGND VGND VPWR VPWR sky130_fd_sc_hd__decap_12
XFILLER_42_53 VGND VGND VPWR VPWR sky130_fd_sc_hd__decap_4
XFILLER_13_146 VGND VGND VPWR VPWR sky130_fd_sc_hd__decap_4
XFILLER_5_334 VGND VGND VPWR VPWR sky130_fd_sc_hd__fill_2
XFILLER_3_69 VGND VGND VPWR VPWR sky130_fd_sc_hd__decap_4
XFILLER_3_14 VGND VGND VPWR VPWR sky130_fd_sc_hd__decap_4
XFILLER_44_282 VGND VGND VPWR VPWR sky130_fd_sc_hd__fill_1
XFILLER_36_205 VGND VGND VPWR VPWR sky130_fd_sc_hd__decap_8
X_0983_ _0981_/X _1798_/Q _0995_/S VGND VGND VPWR VPWR _0984_/A sky130_fd_sc_hd__mux2_1
XFILLER_8_150 VGND VGND VPWR VPWR sky130_fd_sc_hd__fill_1
X_1535_ _1538_/A VGND VGND VPWR VPWR _1535_/Y sky130_fd_sc_hd__inv_2
X_1604_ _1606_/A VGND VGND VPWR VPWR _1604_/Y sky130_fd_sc_hd__inv_2
X_1397_ _1421_/A VGND VGND VPWR VPWR _1402_/A sky130_fd_sc_hd__buf_2
X_1466_ _1470_/A VGND VGND VPWR VPWR _1466_/Y sky130_fd_sc_hd__inv_2
XFILLER_27_249 VGND VGND VPWR VPWR sky130_fd_sc_hd__decap_6
XFILLER_27_238 VGND VGND VPWR VPWR sky130_fd_sc_hd__fill_1
XFILLER_50_230 VGND VGND VPWR VPWR sky130_fd_sc_hd__decap_4
XFILLER_42_208 VGND VGND VPWR VPWR sky130_fd_sc_hd__decap_4
XFILLER_2_304 VGND VGND VPWR VPWR sky130_fd_sc_hd__decap_4
XFILLER_58_341 VGND VGND VPWR VPWR sky130_fd_sc_hd__fill_1
XFILLER_2_315 VGND VGND VPWR VPWR sky130_fd_sc_hd__decap_4
XFILLER_26_282 VGND VGND VPWR VPWR sky130_fd_sc_hd__decap_4
XFILLER_5_120 VGND VGND VPWR VPWR sky130_fd_sc_hd__fill_1
X_1320_ _1677_/Q _1777_/Q _1326_/S VGND VGND VPWR VPWR _1321_/A sky130_fd_sc_hd__mux2_1
XFILLER_49_341 VGND VGND VPWR VPWR sky130_fd_sc_hd__fill_1
X_1182_ _1182_/A VGND VGND VPWR VPWR _1739_/D sky130_fd_sc_hd__clkbuf_1
X_1251_ _1708_/Q _1808_/Q _1259_/S VGND VGND VPWR VPWR _1252_/A sky130_fd_sc_hd__mux2_1
Xoutput200 _1740_/Q VGND VGND VPWR VPWR r_load[96] sky130_fd_sc_hd__buf_2
X_0897_ _0897_/A VGND VGND VPWR VPWR _1823_/D sky130_fd_sc_hd__clkbuf_1
X_0966_ _0964_/X _1803_/Q _0978_/S VGND VGND VPWR VPWR _0967_/A sky130_fd_sc_hd__mux2_1
X_1518_ _1519_/A VGND VGND VPWR VPWR _1518_/Y sky130_fd_sc_hd__inv_2
X_1449_ _1451_/A VGND VGND VPWR VPWR _1449_/Y sky130_fd_sc_hd__inv_2
XFILLER_23_66 VGND VGND VPWR VPWR sky130_fd_sc_hd__fill_1
XFILLER_58_160 VGND VGND VPWR VPWR sky130_fd_sc_hd__decap_8
XFILLER_46_333 VGND VGND VPWR VPWR sky130_fd_sc_hd__decap_8
XFILLER_0_37 VGND VGND VPWR VPWR sky130_fd_sc_hd__decap_4
XFILLER_9_35 VGND VGND VPWR VPWR sky130_fd_sc_hd__decap_12
XFILLER_9_57 VGND VGND VPWR VPWR sky130_fd_sc_hd__fill_1
X_1303_ _1303_/A VGND VGND VPWR VPWR _1685_/D sky130_fd_sc_hd__clkbuf_1
XFILLER_49_182 VGND VGND VPWR VPWR sky130_fd_sc_hd__decap_4
XFILLER_49_160 VGND VGND VPWR VPWR sky130_fd_sc_hd__decap_8
X_1165_ _1746_/Q input13/X _1168_/S VGND VGND VPWR VPWR _1165_/X sky130_fd_sc_hd__mux2_1
X_1096_ _1096_/A VGND VGND VPWR VPWR _1766_/D sky130_fd_sc_hd__clkbuf_1
X_1234_ _1234_/A VGND VGND VPWR VPWR _1716_/D sky130_fd_sc_hd__clkbuf_1
X_0949_ _0947_/X _1808_/Q _0961_/S VGND VGND VPWR VPWR _0950_/A sky130_fd_sc_hd__mux2_1
XFILLER_28_333 VGND VGND VPWR VPWR sky130_fd_sc_hd__decap_3
XFILLER_28_300 VGND VGND VPWR VPWR sky130_fd_sc_hd__decap_8
XFILLER_55_152 VGND VGND VPWR VPWR sky130_fd_sc_hd__fill_1
XFILLER_34_98 VGND VGND VPWR VPWR sky130_fd_sc_hd__decap_4
XFILLER_7_215 VGND VGND VPWR VPWR sky130_fd_sc_hd__decap_8
XFILLER_7_248 VGND VGND VPWR VPWR sky130_fd_sc_hd__decap_4
XFILLER_11_211 VGND VGND VPWR VPWR sky130_fd_sc_hd__fill_1
XFILLER_46_141 VGND VGND VPWR VPWR sky130_fd_sc_hd__decap_4
XFILLER_34_303 VGND VGND VPWR VPWR sky130_fd_sc_hd__decap_4
X_1783_ _1790_/CLK _1783_/D _1569_/Y VGND VGND VPWR VPWR _1783_/Q sky130_fd_sc_hd__dfrtp_1
XFILLER_29_108 VGND VGND VPWR VPWR sky130_fd_sc_hd__decap_4
XFILLER_52_166 VGND VGND VPWR VPWR sky130_fd_sc_hd__decap_4
X_1148_ _1751_/Q input68/X _1151_/S VGND VGND VPWR VPWR _1148_/X sky130_fd_sc_hd__mux2_1
XFILLER_40_306 VGND VGND VPWR VPWR sky130_fd_sc_hd__fill_2
X_1217_ _1723_/Q _1823_/Q _1225_/S VGND VGND VPWR VPWR _1218_/A sky130_fd_sc_hd__mux2_1
XFILLER_1_91 VGND VGND VPWR VPWR sky130_fd_sc_hd__decap_3
X_1079_ _1078_/X _1770_/Q _1082_/S VGND VGND VPWR VPWR _1080_/A sky130_fd_sc_hd__mux2_1
XFILLER_28_163 VGND VGND VPWR VPWR sky130_fd_sc_hd__decap_4
XFILLER_28_141 VGND VGND VPWR VPWR sky130_fd_sc_hd__fill_2
XFILLER_43_122 VGND VGND VPWR VPWR sky130_fd_sc_hd__decap_6
XFILLER_31_306 VGND VGND VPWR VPWR sky130_fd_sc_hd__decap_12
XANTENNA_7 input42/X VGND VGND VPWR VPWR sky130_fd_sc_hd__diode_2
XTAP_339 VGND VPWR sky130_fd_sc_hd__tapvpwrvgnd_1
XTAP_328 VGND VPWR sky130_fd_sc_hd__tapvpwrvgnd_1
XTAP_317 VGND VPWR sky130_fd_sc_hd__tapvpwrvgnd_1
XTAP_306 VGND VPWR sky130_fd_sc_hd__tapvpwrvgnd_1
XFILLER_34_144 VGND VGND VPWR VPWR sky130_fd_sc_hd__decap_6
XFILLER_19_130 VGND VGND VPWR VPWR sky130_fd_sc_hd__decap_6
XFILLER_19_185 VGND VGND VPWR VPWR sky130_fd_sc_hd__decap_4
X_1002_ _0999_/X _1793_/Q _1014_/S VGND VGND VPWR VPWR _1003_/A sky130_fd_sc_hd__mux2_1
XFILLER_34_177 VGND VGND VPWR VPWR sky130_fd_sc_hd__decap_6
X_1835_ _1838_/CLK _1835_/D _1634_/Y VGND VGND VPWR VPWR _1835_/Q sky130_fd_sc_hd__dfrtp_1
XFILLER_22_339 VGND VGND VPWR VPWR sky130_fd_sc_hd__decap_3
X_1766_ _1838_/CLK _1766_/D _1548_/Y VGND VGND VPWR VPWR _1766_/Q sky130_fd_sc_hd__dfrtp_1
X_1697_ _1798_/CLK _1697_/D _1463_/Y VGND VGND VPWR VPWR _1697_/Q sky130_fd_sc_hd__dfrtp_2
XFILLER_57_247 VGND VGND VPWR VPWR sky130_fd_sc_hd__fill_1
XFILLER_57_225 VGND VGND VPWR VPWR sky130_fd_sc_hd__decap_4
XFILLER_40_136 VGND VGND VPWR VPWR sky130_fd_sc_hd__decap_4
XFILLER_25_155 VGND VGND VPWR VPWR sky130_fd_sc_hd__decap_6
Xclkbuf_4_10_0_clk clkbuf_3_5_0_clk/X VGND VGND VPWR VPWR _1768_/CLK sky130_fd_sc_hd__clkbuf_2
XFILLER_40_169 VGND VGND VPWR VPWR sky130_fd_sc_hd__decap_4
XFILLER_31_66 VGND VGND VPWR VPWR sky130_fd_sc_hd__decap_4
Xinput100 r_read[99] VGND VGND VPWR VPWR _0824_/A1 sky130_fd_sc_hd__clkbuf_1
XFILLER_0_265 VGND VGND VPWR VPWR sky130_fd_sc_hd__decap_4
XFILLER_0_243 VGND VGND VPWR VPWR sky130_fd_sc_hd__decap_8
X_1620_ _1638_/A VGND VGND VPWR VPWR _1625_/A sky130_fd_sc_hd__buf_2
X_1551_ _1613_/A VGND VGND VPWR VPWR _1576_/A sky130_fd_sc_hd__clkbuf_2
X_1482_ _1482_/A VGND VGND VPWR VPWR _1482_/Y sky130_fd_sc_hd__inv_2
XFILLER_39_214 VGND VGND VPWR VPWR sky130_fd_sc_hd__decap_8
XTAP_147 VGND VPWR sky130_fd_sc_hd__tapvpwrvgnd_1
XTAP_136 VGND VPWR sky130_fd_sc_hd__tapvpwrvgnd_1
XTAP_125 VGND VPWR sky130_fd_sc_hd__tapvpwrvgnd_1
XTAP_158 VGND VPWR sky130_fd_sc_hd__tapvpwrvgnd_1
XTAP_169 VGND VPWR sky130_fd_sc_hd__tapvpwrvgnd_1
XFILLER_10_309 VGND VGND VPWR VPWR sky130_fd_sc_hd__decap_3
X_1818_ _1818_/CLK _1818_/D _1612_/Y VGND VGND VPWR VPWR _1818_/Q sky130_fd_sc_hd__dfrtp_1
XFILLER_22_169 VGND VGND VPWR VPWR sky130_fd_sc_hd__decap_4
X_1749_ _1768_/CLK _1749_/D _1528_/Y VGND VGND VPWR VPWR _1749_/Q sky130_fd_sc_hd__dfrtp_1
XFILLER_26_66 VGND VGND VPWR VPWR sky130_fd_sc_hd__decap_4
XFILLER_26_88 VGND VGND VPWR VPWR sky130_fd_sc_hd__decap_4
XFILLER_9_118 VGND VGND VPWR VPWR sky130_fd_sc_hd__decap_4
XFILLER_13_136 VGND VGND VPWR VPWR sky130_fd_sc_hd__fill_1
XFILLER_5_302 VGND VGND VPWR VPWR sky130_fd_sc_hd__decap_4
XFILLER_5_346 VGND VGND VPWR VPWR sky130_fd_sc_hd__decap_4
X_0982_ _0982_/A VGND VGND VPWR VPWR _0995_/S sky130_fd_sc_hd__clkbuf_2
X_1534_ _1538_/A VGND VGND VPWR VPWR _1534_/Y sky130_fd_sc_hd__inv_2
X_1465_ _1483_/A VGND VGND VPWR VPWR _1470_/A sky130_fd_sc_hd__buf_2
X_1603_ _1606_/A VGND VGND VPWR VPWR _1603_/Y sky130_fd_sc_hd__inv_2
X_1396_ _1520_/A VGND VGND VPWR VPWR _1421_/A sky130_fd_sc_hd__clkbuf_2
XFILLER_5_7 VGND VGND VPWR VPWR sky130_fd_sc_hd__decap_12
XFILLER_41_220 VGND VGND VPWR VPWR sky130_fd_sc_hd__decap_4
XFILLER_37_87 VGND VGND VPWR VPWR sky130_fd_sc_hd__decap_4
XFILLER_18_228 VGND VGND VPWR VPWR sky130_fd_sc_hd__decap_4
XFILLER_38_7 VGND VGND VPWR VPWR sky130_fd_sc_hd__decap_8
X_1181_ _1739_/Q _1839_/Q _1181_/S VGND VGND VPWR VPWR _1182_/A sky130_fd_sc_hd__mux2_1
X_1250_ _1272_/A VGND VGND VPWR VPWR _1259_/S sky130_fd_sc_hd__clkbuf_2
XFILLER_32_253 VGND VGND VPWR VPWR sky130_fd_sc_hd__decap_4
XFILLER_32_220 VGND VGND VPWR VPWR sky130_fd_sc_hd__decap_6
XFILLER_17_250 VGND VGND VPWR VPWR sky130_fd_sc_hd__fill_1
XFILLER_17_261 VGND VGND VPWR VPWR sky130_fd_sc_hd__fill_2
Xoutput201 _1741_/Q VGND VGND VPWR VPWR r_load[97] sky130_fd_sc_hd__buf_2
X_0896_ _0894_/X _1823_/Q _0908_/S VGND VGND VPWR VPWR _0897_/A sky130_fd_sc_hd__mux2_1
X_0965_ _0982_/A VGND VGND VPWR VPWR _0978_/S sky130_fd_sc_hd__clkbuf_2
X_1517_ _1519_/A VGND VGND VPWR VPWR _1517_/Y sky130_fd_sc_hd__inv_2
X_1448_ _1451_/A VGND VGND VPWR VPWR _1448_/Y sky130_fd_sc_hd__inv_2
X_1379_ _1379_/A VGND VGND VPWR VPWR _1651_/D sky130_fd_sc_hd__clkbuf_1
XFILLER_23_220 VGND VGND VPWR VPWR sky130_fd_sc_hd__decap_4
XFILLER_9_47 VGND VGND VPWR VPWR sky130_fd_sc_hd__decap_8
XFILLER_29_3 VGND VGND VPWR VPWR sky130_fd_sc_hd__decap_6
X_1302_ _1685_/Q _1785_/Q _1304_/S VGND VGND VPWR VPWR _1303_/A sky130_fd_sc_hd__mux2_1
X_1233_ _1716_/Q _1816_/Q _1237_/S VGND VGND VPWR VPWR _1234_/A sky130_fd_sc_hd__mux2_1
XFILLER_52_304 VGND VGND VPWR VPWR sky130_fd_sc_hd__decap_4
X_1164_ _1164_/A VGND VGND VPWR VPWR _1746_/D sky130_fd_sc_hd__clkbuf_1
X_1095_ _1094_/X _1766_/Q _1101_/S VGND VGND VPWR VPWR _1096_/A sky130_fd_sc_hd__mux2_1
X_0948_ _0982_/A VGND VGND VPWR VPWR _0961_/S sky130_fd_sc_hd__clkbuf_2
X_0879_ _0877_/X _1828_/Q _0891_/S VGND VGND VPWR VPWR _0880_/A sky130_fd_sc_hd__mux2_1
XFILLER_9_290 VGND VGND VPWR VPWR sky130_fd_sc_hd__decap_4
XFILLER_18_34 VGND VGND VPWR VPWR sky130_fd_sc_hd__decap_4
XFILLER_18_56 VGND VGND VPWR VPWR sky130_fd_sc_hd__decap_4
XFILLER_43_337 VGND VGND VPWR VPWR sky130_fd_sc_hd__decap_12
XFILLER_34_55 VGND VGND VPWR VPWR sky130_fd_sc_hd__decap_8
XFILLER_11_245 VGND VGND VPWR VPWR sky130_fd_sc_hd__decap_4
XFILLER_38_109 VGND VGND VPWR VPWR sky130_fd_sc_hd__fill_2
XFILLER_46_197 VGND VGND VPWR VPWR sky130_fd_sc_hd__decap_4
XFILLER_19_312 VGND VGND VPWR VPWR sky130_fd_sc_hd__decap_12
X_1782_ _1790_/CLK _1782_/D _1568_/Y VGND VGND VPWR VPWR _1782_/Q sky130_fd_sc_hd__dfrtp_1
XFILLER_6_271 VGND VGND VPWR VPWR sky130_fd_sc_hd__fill_1
X_1216_ _1216_/A VGND VGND VPWR VPWR _1225_/S sky130_fd_sc_hd__clkbuf_2
XFILLER_52_123 VGND VGND VPWR VPWR sky130_fd_sc_hd__decap_4
X_1147_ _1147_/A VGND VGND VPWR VPWR _1751_/D sky130_fd_sc_hd__clkbuf_1
XFILLER_37_186 VGND VGND VPWR VPWR sky130_fd_sc_hd__fill_1
XFILLER_37_164 VGND VGND VPWR VPWR sky130_fd_sc_hd__decap_4
XFILLER_25_337 VGND VGND VPWR VPWR sky130_fd_sc_hd__decap_6
XFILLER_25_315 VGND VGND VPWR VPWR sky130_fd_sc_hd__fill_2
X_1078_ _1771_/Q input20/X _1081_/S VGND VGND VPWR VPWR _1078_/X sky130_fd_sc_hd__mux2_1
XFILLER_20_24 VGND VGND VPWR VPWR sky130_fd_sc_hd__decap_4
XFILLER_45_87 VGND VGND VPWR VPWR sky130_fd_sc_hd__decap_4
XFILLER_31_318 VGND VGND VPWR VPWR sky130_fd_sc_hd__decap_12
XANTENNA_8 input44/X VGND VGND VPWR VPWR sky130_fd_sc_hd__diode_2
XTAP_329 VGND VPWR sky130_fd_sc_hd__tapvpwrvgnd_1
XTAP_318 VGND VPWR sky130_fd_sc_hd__tapvpwrvgnd_1
XTAP_307 VGND VPWR sky130_fd_sc_hd__tapvpwrvgnd_1
XFILLER_20_7 VGND VGND VPWR VPWR sky130_fd_sc_hd__decap_12