* SPICE3 file created from wrapper.ext - technology: sky130A

.subckt sky130_fd_sc_hd__a2bb2o_1 A1_N A2_N B1 B2 VGND VPWR X VNB VPB
X0 a_226_47# A2_N a_226_297# VPB sky130_fd_pr__pfet_01v8_hvt ad=1.113e+11p pd=1.37e+06u as=8.82e+10p ps=1.26e+06u w=420000u l=150000u
X1 a_489_413# B1 VPWR VPB sky130_fd_pr__pfet_01v8_hvt ad=2.226e+11p pd=2.74e+06u as=4.469e+11p ps=4.25e+06u w=420000u l=150000u
X2 a_226_297# A1_N VPWR VPB sky130_fd_pr__pfet_01v8_hvt ad=0p pd=0u as=0p ps=0u w=420000u l=150000u
X3 VPWR B2 a_489_413# VPB sky130_fd_pr__pfet_01v8_hvt ad=0p pd=0u as=0p ps=0u w=420000u l=150000u
X4 a_489_413# a_226_47# a_76_199# VPB sky130_fd_pr__pfet_01v8_hvt ad=0p pd=0u as=1.092e+11p ps=1.36e+06u w=420000u l=150000u
X5 a_76_199# a_226_47# VGND VNB sky130_fd_pr__nfet_01v8 ad=1.134e+11p pd=1.38e+06u as=6.266e+11p ps=5.69e+06u w=420000u l=150000u
X6 VGND B1 a_556_47# VNB sky130_fd_pr__nfet_01v8 ad=0p pd=0u as=1.134e+11p ps=1.38e+06u w=420000u l=150000u
X7 a_556_47# B2 a_76_199# VNB sky130_fd_pr__nfet_01v8 ad=0p pd=0u as=0p ps=0u w=420000u l=150000u
X8 VGND A2_N a_226_47# VNB sky130_fd_pr__nfet_01v8 ad=0p pd=0u as=1.134e+11p ps=1.38e+06u w=420000u l=150000u
X9 a_226_47# A1_N VGND VNB sky130_fd_pr__nfet_01v8 ad=0p pd=0u as=0p ps=0u w=420000u l=150000u
X10 VPWR a_76_199# X VPB sky130_fd_pr__pfet_01v8_hvt ad=0p pd=0u as=2.6e+11p ps=2.52e+06u w=1e+06u l=150000u
X11 VGND a_76_199# X VNB sky130_fd_pr__nfet_01v8 ad=0p pd=0u as=1.69e+11p ps=1.82e+06u w=650000u l=150000u
.ends

.subckt sky130_fd_sc_hd__inv_2 A VGND VPWR Y VNB VPB
X0 Y A VPWR VPB sky130_fd_pr__pfet_01v8_hvt ad=2.7e+11p pd=2.54e+06u as=5.2e+11p ps=5.04e+06u w=1e+06u l=150000u
X1 VGND A Y VNB sky130_fd_pr__nfet_01v8 ad=3.38e+11p pd=3.64e+06u as=1.755e+11p ps=1.84e+06u w=650000u l=150000u
X2 Y A VGND VNB sky130_fd_pr__nfet_01v8 ad=0p pd=0u as=0p ps=0u w=650000u l=150000u
X3 VPWR A Y VPB sky130_fd_pr__pfet_01v8_hvt ad=0p pd=0u as=0p ps=0u w=1e+06u l=150000u
.ends

.subckt sky130_fd_sc_hd__decap_8 VGND VPWR VNB VPB
X0 VPWR VGND VPWR VPB sky130_fd_pr__pfet_01v8_hvt ad=4.524e+11p pd=4.52e+06u as=0p ps=0u w=870000u l=2.89e+06u
X1 VGND VPWR VGND VNB sky130_fd_pr__nfet_01v8 ad=2.86e+11p pd=3.24e+06u as=0p ps=0u w=550000u l=2.89e+06u
.ends

.subckt sky130_fd_sc_hd__clkbuf_1 A VGND VPWR X VNB VPB
X0 VPWR a_75_212# X VPB sky130_fd_pr__pfet_01v8_hvt ad=2.291e+11p pd=2.16e+06u as=2.054e+11p ps=2.1e+06u w=790000u l=150000u
X1 a_75_212# A VGND VNB sky130_fd_pr__nfet_01v8 ad=1.352e+11p pd=1.56e+06u as=1.508e+11p ps=1.62e+06u w=520000u l=150000u
X2 a_75_212# A VPWR VPB sky130_fd_pr__pfet_01v8_hvt ad=2.054e+11p pd=2.1e+06u as=0p ps=0u w=790000u l=150000u
X3 VGND a_75_212# X VNB sky130_fd_pr__nfet_01v8 ad=0p pd=0u as=1.352e+11p ps=1.56e+06u w=520000u l=150000u
.ends

.subckt sky130_fd_sc_hd__decap_4 VGND VPWR VNB VPB
X0 VPWR VGND VPWR VPB sky130_fd_pr__pfet_01v8_hvt ad=4.524e+11p pd=4.52e+06u as=0p ps=0u w=870000u l=1.05e+06u
X1 VGND VPWR VGND VNB sky130_fd_pr__nfet_01v8 ad=2.86e+11p pd=3.24e+06u as=0p ps=0u w=550000u l=1.05e+06u
.ends

.subckt sky130_fd_sc_hd__decap_12 VGND VPWR VNB VPB
X0 VPWR VGND VPWR VPB sky130_fd_pr__pfet_01v8_hvt ad=4.524e+11p pd=4.52e+06u as=0p ps=0u w=870000u l=4.73e+06u
X1 VGND VPWR VGND VNB sky130_fd_pr__nfet_01v8 ad=2.86e+11p pd=3.24e+06u as=0p ps=0u w=550000u l=4.73e+06u
.ends

.subckt sky130_fd_sc_hd__conb_1 VGND VNB VPB VPWR HI LO
R0 HI VPWR sky130_fd_pr__res_generic_po w=480000u l=45000u
R1 VGND LO sky130_fd_pr__res_generic_po w=480000u l=45000u
.ends

.subckt sky130_fd_sc_hd__or4_1 A B C D VGND VPWR X VNB VPB
X0 a_27_297# B VGND VNB sky130_fd_pr__nfet_01v8 ad=2.52e+11p pd=2.88e+06u as=4.2635e+11p ps=4.72e+06u w=420000u l=150000u
X1 a_27_297# D VGND VNB sky130_fd_pr__nfet_01v8 ad=0p pd=0u as=0p ps=0u w=420000u l=150000u
X2 a_277_297# B a_205_297# VPB sky130_fd_pr__pfet_01v8_hvt ad=1.386e+11p pd=1.5e+06u as=8.82e+10p ps=1.26e+06u w=420000u l=150000u
X3 VPWR A a_277_297# VPB sky130_fd_pr__pfet_01v8_hvt ad=2.965e+11p pd=2.68e+06u as=0p ps=0u w=420000u l=150000u
X4 X a_27_297# VGND VNB sky130_fd_pr__nfet_01v8 ad=1.755e+11p pd=1.84e+06u as=0p ps=0u w=650000u l=150000u
X5 a_205_297# C a_109_297# VPB sky130_fd_pr__pfet_01v8_hvt ad=0p pd=0u as=1.386e+11p ps=1.5e+06u w=420000u l=150000u
X6 X a_27_297# VPWR VPB sky130_fd_pr__pfet_01v8_hvt ad=2.7e+11p pd=2.54e+06u as=0p ps=0u w=1e+06u l=150000u
X7 VGND C a_27_297# VNB sky130_fd_pr__nfet_01v8 ad=0p pd=0u as=0p ps=0u w=420000u l=150000u
X8 a_109_297# D a_27_297# VPB sky130_fd_pr__pfet_01v8_hvt ad=0p pd=0u as=1.092e+11p ps=1.36e+06u w=420000u l=150000u
X9 VGND A a_27_297# VNB sky130_fd_pr__nfet_01v8 ad=0p pd=0u as=0p ps=0u w=420000u l=150000u
.ends

.subckt sky130_fd_sc_hd__decap_6 VGND VPWR VNB VPB
X0 VPWR VGND VPWR VPB sky130_fd_pr__pfet_01v8_hvt ad=4.524e+11p pd=4.52e+06u as=0p ps=0u w=870000u l=1.97e+06u
X1 VGND VPWR VGND VNB sky130_fd_pr__nfet_01v8 ad=2.86e+11p pd=3.24e+06u as=0p ps=0u w=550000u l=1.97e+06u
.ends

.subckt sky130_fd_sc_hd__mux2_1 A0 A1 S VGND VPWR X VNB VPB
X0 VPWR a_505_21# a_535_374# VPB sky130_fd_pr__pfet_01v8_hvt ad=4.553e+11p pd=4.29e+06u as=8.82e+10p ps=1.26e+06u w=420000u l=150000u
X1 a_505_21# S VPWR VPB sky130_fd_pr__pfet_01v8_hvt ad=1.176e+11p pd=1.4e+06u as=0p ps=0u w=420000u l=150000u
X2 a_218_374# S VPWR VPB sky130_fd_pr__pfet_01v8_hvt ad=1.533e+11p pd=1.57e+06u as=0p ps=0u w=420000u l=150000u
X3 VGND a_505_21# a_439_47# VNB sky130_fd_pr__nfet_01v8 ad=5.155e+11p pd=4.31e+06u as=1.386e+11p ps=1.5e+06u w=420000u l=150000u
X4 a_76_199# A0 a_218_374# VPB sky130_fd_pr__pfet_01v8_hvt ad=3.864e+11p pd=2.68e+06u as=0p ps=0u w=420000u l=150000u
X5 a_505_21# S VGND VNB sky130_fd_pr__nfet_01v8 ad=1.092e+11p pd=1.36e+06u as=0p ps=0u w=420000u l=150000u
X6 a_439_47# A0 a_76_199# VNB sky130_fd_pr__nfet_01v8 ad=0p pd=0u as=1.995e+11p ps=1.79e+06u w=420000u l=150000u
X7 a_535_374# A1 a_76_199# VPB sky130_fd_pr__pfet_01v8_hvt ad=0p pd=0u as=0p ps=0u w=420000u l=150000u
X8 a_76_199# A1 a_218_47# VNB sky130_fd_pr__nfet_01v8 ad=0p pd=0u as=1.386e+11p ps=1.5e+06u w=420000u l=150000u
X9 a_218_47# S VGND VNB sky130_fd_pr__nfet_01v8 ad=0p pd=0u as=0p ps=0u w=420000u l=150000u
X10 VPWR a_76_199# X VPB sky130_fd_pr__pfet_01v8_hvt ad=0p pd=0u as=2.6e+11p ps=2.52e+06u w=1e+06u l=150000u
X11 VGND a_76_199# X VNB sky130_fd_pr__nfet_01v8 ad=0p pd=0u as=1.69e+11p ps=1.82e+06u w=650000u l=150000u
.ends

.subckt sky130_fd_sc_hd__clkbuf_2 A VGND VPWR X VNB VPB
X0 VPWR A a_27_47# VPB sky130_fd_pr__pfet_01v8_hvt ad=5.85e+11p pd=5.17e+06u as=2.65e+11p ps=2.53e+06u w=1e+06u l=150000u
X1 VPWR a_27_47# X VPB sky130_fd_pr__pfet_01v8_hvt ad=0p pd=0u as=2.7e+11p ps=2.54e+06u w=1e+06u l=150000u
X2 VGND A a_27_47# VNB sky130_fd_pr__nfet_01v8 ad=2.457e+11p pd=2.85e+06u as=1.113e+11p ps=1.37e+06u w=420000u l=150000u
X3 X a_27_47# VPWR VPB sky130_fd_pr__pfet_01v8_hvt ad=0p pd=0u as=0p ps=0u w=1e+06u l=150000u
X4 X a_27_47# VGND VNB sky130_fd_pr__nfet_01v8 ad=1.134e+11p pd=1.38e+06u as=0p ps=0u w=420000u l=150000u
X5 VGND a_27_47# X VNB sky130_fd_pr__nfet_01v8 ad=0p pd=0u as=0p ps=0u w=420000u l=150000u
.ends

.subckt sky130_fd_sc_hd__dfxtp_1 CLK D VGND VPWR Q VNB VPB
X0 Q a_1059_315# VGND VNB sky130_fd_pr__nfet_01v8 ad=1.69e+11p pd=1.82e+06u as=7.492e+11p ps=8.11e+06u w=650000u l=150000u
X1 a_891_413# a_193_47# a_634_159# VNB sky130_fd_pr__nfet_01v8 ad=1.368e+11p pd=1.48e+06u as=1.978e+11p ps=1.99e+06u w=360000u l=150000u
X2 a_561_413# a_27_47# a_466_413# VPB sky130_fd_pr__pfet_01v8_hvt ad=1.533e+11p pd=1.57e+06u as=1.365e+11p ps=1.49e+06u w=420000u l=150000u
X3 VPWR CLK a_27_47# VPB sky130_fd_pr__pfet_01v8_hvt ad=1.02105e+12p pd=9.61e+06u as=1.664e+11p ps=1.8e+06u w=640000u l=150000u
X4 Q a_1059_315# VPWR VPB sky130_fd_pr__pfet_01v8_hvt ad=2.6e+11p pd=2.52e+06u as=0p ps=0u w=1e+06u l=150000u
X5 a_381_47# D VPWR VPB sky130_fd_pr__pfet_01v8_hvt ad=1.155e+11p pd=1.39e+06u as=0p ps=0u w=420000u l=150000u
X6 VGND a_634_159# a_592_47# VNB sky130_fd_pr__nfet_01v8 ad=0p pd=0u as=1.392e+11p ps=1.53e+06u w=420000u l=150000u
X7 VPWR a_891_413# a_1059_315# VPB sky130_fd_pr__pfet_01v8_hvt ad=0p pd=0u as=2.7e+11p ps=2.54e+06u w=1e+06u l=150000u
X8 a_466_413# a_193_47# a_381_47# VPB sky130_fd_pr__pfet_01v8_hvt ad=0p pd=0u as=0p ps=0u w=420000u l=150000u
X9 VPWR a_634_159# a_561_413# VPB sky130_fd_pr__pfet_01v8_hvt ad=0p pd=0u as=0p ps=0u w=420000u l=150000u
X10 a_634_159# a_466_413# VGND VNB sky130_fd_pr__nfet_01v8 ad=0p pd=0u as=0p ps=0u w=640000u l=150000u
X11 a_634_159# a_466_413# VPWR VPB sky130_fd_pr__pfet_01v8_hvt ad=2.19e+11p pd=2.15e+06u as=0p ps=0u w=750000u l=150000u
X12 a_975_413# a_193_47# a_891_413# VPB sky130_fd_pr__pfet_01v8_hvt ad=1.764e+11p pd=1.68e+06u as=1.134e+11p ps=1.38e+06u w=420000u l=150000u
X13 VGND a_1059_315# a_1017_47# VNB sky130_fd_pr__nfet_01v8 ad=0p pd=0u as=1.32e+11p ps=1.49e+06u w=420000u l=150000u
X14 a_193_47# a_27_47# VGND VNB sky130_fd_pr__nfet_01v8 ad=1.092e+11p pd=1.36e+06u as=0p ps=0u w=420000u l=150000u
X15 a_891_413# a_27_47# a_634_159# VPB sky130_fd_pr__pfet_01v8_hvt ad=0p pd=0u as=0p ps=0u w=420000u l=150000u
X16 a_592_47# a_193_47# a_466_413# VNB sky130_fd_pr__nfet_01v8 ad=0p pd=0u as=1.242e+11p ps=1.41e+06u w=360000u l=150000u
X17 a_1017_47# a_27_47# a_891_413# VNB sky130_fd_pr__nfet_01v8 ad=0p pd=0u as=0p ps=0u w=360000u l=150000u
X18 VPWR a_1059_315# a_975_413# VPB sky130_fd_pr__pfet_01v8_hvt ad=0p pd=0u as=0p ps=0u w=420000u l=150000u
X19 a_466_413# a_27_47# a_381_47# VNB sky130_fd_pr__nfet_01v8 ad=0p pd=0u as=1.626e+11p ps=1.66e+06u w=360000u l=150000u
X20 a_193_47# a_27_47# VPWR VPB sky130_fd_pr__pfet_01v8_hvt ad=1.664e+11p pd=1.8e+06u as=0p ps=0u w=640000u l=150000u
X21 VGND a_891_413# a_1059_315# VNB sky130_fd_pr__nfet_01v8 ad=0p pd=0u as=1.69e+11p ps=1.82e+06u w=650000u l=150000u
X22 a_381_47# D VGND VNB sky130_fd_pr__nfet_01v8 ad=0p pd=0u as=0p ps=0u w=420000u l=150000u
X23 VGND CLK a_27_47# VNB sky130_fd_pr__nfet_01v8 ad=0p pd=0u as=1.092e+11p ps=1.36e+06u w=420000u l=150000u
.ends

.subckt sky130_fd_sc_hd__dfrtp_1 CLK D RESET_B VGND VPWR Q VNB VPB
X0 a_1217_47# a_27_47# a_1108_47# VNB sky130_fd_pr__nfet_01v8 ad=1.338e+11p pd=1.5e+06u as=1.422e+11p ps=1.51e+06u w=360000u l=150000u
X1 a_805_47# a_761_289# a_639_47# VNB sky130_fd_pr__nfet_01v8 ad=8.82e+10p pd=1.26e+06u as=2.802e+11p ps=2.2e+06u w=420000u l=150000u
X2 a_1108_47# a_193_47# a_761_289# VNB sky130_fd_pr__nfet_01v8 ad=0p pd=0u as=1.998e+11p ps=1.97e+06u w=360000u l=150000u
X3 a_1283_21# a_1108_47# a_1462_47# VNB sky130_fd_pr__nfet_01v8 ad=1.092e+11p pd=1.36e+06u as=1.281e+11p ps=1.45e+06u w=420000u l=150000u
X4 a_651_413# a_27_47# a_543_47# VPB sky130_fd_pr__pfet_01v8_hvt ad=3.402e+11p pd=3.3e+06u as=1.449e+11p ps=1.53e+06u w=420000u l=150000u
X5 VGND RESET_B a_805_47# VNB sky130_fd_pr__nfet_01v8 ad=1.0617e+12p pd=9.62e+06u as=0p ps=0u w=420000u l=150000u
X6 Q a_1283_21# VPWR VPB sky130_fd_pr__pfet_01v8_hvt ad=2.6e+11p pd=2.52e+06u as=1.2195e+12p ps=1.255e+07u w=1e+06u l=150000u
X7 VPWR CLK a_27_47# VPB sky130_fd_pr__pfet_01v8_hvt ad=0p pd=0u as=1.664e+11p ps=1.8e+06u w=640000u l=150000u
X8 a_448_47# D VPWR VPB sky130_fd_pr__pfet_01v8_hvt ad=1.302e+11p pd=1.46e+06u as=0p ps=0u w=420000u l=150000u
X9 a_761_289# a_543_47# VGND VNB sky130_fd_pr__nfet_01v8 ad=0p pd=0u as=0p ps=0u w=640000u l=150000u
X10 a_193_47# a_27_47# VGND VNB sky130_fd_pr__nfet_01v8 ad=1.092e+11p pd=1.36e+06u as=0p ps=0u w=420000u l=150000u
X11 a_1108_47# a_27_47# a_761_289# VPB sky130_fd_pr__pfet_01v8_hvt ad=1.176e+11p pd=1.4e+06u as=2.583e+11p ps=2.37e+06u w=420000u l=150000u
X12 a_543_47# a_27_47# a_448_47# VNB sky130_fd_pr__nfet_01v8 ad=1.188e+11p pd=1.38e+06u as=1.32e+11p ps=1.49e+06u w=360000u l=150000u
X13 a_1462_47# RESET_B VGND VNB sky130_fd_pr__nfet_01v8 ad=0p pd=0u as=0p ps=0u w=420000u l=150000u
X14 a_543_47# a_193_47# a_448_47# VPB sky130_fd_pr__pfet_01v8_hvt ad=0p pd=0u as=0p ps=0u w=420000u l=150000u
X15 a_448_47# D VGND VNB sky130_fd_pr__nfet_01v8 ad=0p pd=0u as=0p ps=0u w=420000u l=150000u
X16 VPWR a_1283_21# a_1270_413# VPB sky130_fd_pr__pfet_01v8_hvt ad=0p pd=0u as=1.134e+11p ps=1.38e+06u w=420000u l=150000u
X17 VPWR a_1108_47# a_1283_21# VPB sky130_fd_pr__pfet_01v8_hvt ad=0p pd=0u as=1.134e+11p ps=1.38e+06u w=420000u l=150000u
X18 a_1270_413# a_193_47# a_1108_47# VPB sky130_fd_pr__pfet_01v8_hvt ad=0p pd=0u as=0p ps=0u w=420000u l=150000u
X19 a_193_47# a_27_47# VPWR VPB sky130_fd_pr__pfet_01v8_hvt ad=1.664e+11p pd=1.8e+06u as=0p ps=0u w=640000u l=150000u
X20 a_1283_21# RESET_B VPWR VPB sky130_fd_pr__pfet_01v8_hvt ad=0p pd=0u as=0p ps=0u w=420000u l=150000u
X21 VPWR a_761_289# a_651_413# VPB sky130_fd_pr__pfet_01v8_hvt ad=0p pd=0u as=0p ps=0u w=420000u l=150000u
X22 Q a_1283_21# VGND VNB sky130_fd_pr__nfet_01v8 ad=1.69e+11p pd=1.82e+06u as=0p ps=0u w=650000u l=150000u
X23 a_639_47# a_193_47# a_543_47# VNB sky130_fd_pr__nfet_01v8 ad=0p pd=0u as=0p ps=0u w=360000u l=150000u
X24 VGND a_1283_21# a_1217_47# VNB sky130_fd_pr__nfet_01v8 ad=0p pd=0u as=0p ps=0u w=420000u l=150000u
X25 a_651_413# RESET_B VPWR VPB sky130_fd_pr__pfet_01v8_hvt ad=0p pd=0u as=0p ps=0u w=420000u l=150000u
X26 VGND CLK a_27_47# VNB sky130_fd_pr__nfet_01v8 ad=0p pd=0u as=1.092e+11p ps=1.36e+06u w=420000u l=150000u
X27 a_761_289# a_543_47# VPWR VPB sky130_fd_pr__pfet_01v8_hvt ad=0p pd=0u as=0p ps=0u w=840000u l=150000u
.ends

.subckt sky130_fd_sc_hd__diode_2 DIODE VGND VPB VPWR VNB
D0 VNB DIODE sky130_fd_pr__diode_pw2nd_05v5 pj=5.36e+06u area=4.347e+11p
.ends

.subckt sky130_fd_sc_hd__decap_3 VGND VPWR VNB VPB
X0 VPWR VGND VPWR VPB sky130_fd_pr__pfet_01v8_hvt ad=4.524e+11p pd=4.52e+06u as=0p ps=0u w=870000u l=590000u
X1 VGND VPWR VGND VNB sky130_fd_pr__nfet_01v8 ad=2.86e+11p pd=3.24e+06u as=0p ps=0u w=550000u l=590000u
.ends

.subckt sky130_fd_sc_hd__buf_2 A VGND VPWR X VNB VPB
X0 VPWR a_27_47# X VPB sky130_fd_pr__pfet_01v8_hvt ad=5.63e+11p pd=5.18e+06u as=2.7e+11p ps=2.54e+06u w=1e+06u l=150000u
X1 X a_27_47# VPWR VPB sky130_fd_pr__pfet_01v8_hvt ad=0p pd=0u as=0p ps=0u w=1e+06u l=150000u
X2 VPWR A a_27_47# VPB sky130_fd_pr__pfet_01v8_hvt ad=0p pd=0u as=1.664e+11p ps=1.8e+06u w=640000u l=150000u
X3 X a_27_47# VGND VNB sky130_fd_pr__nfet_01v8 ad=1.755e+11p pd=1.84e+06u as=3.6625e+11p ps=3.78e+06u w=650000u l=150000u
X4 VGND a_27_47# X VNB sky130_fd_pr__nfet_01v8 ad=0p pd=0u as=0p ps=0u w=650000u l=150000u
X5 VGND A a_27_47# VNB sky130_fd_pr__nfet_01v8 ad=0p pd=0u as=1.092e+11p ps=1.36e+06u w=420000u l=150000u
.ends

.subckt sky130_fd_sc_hd__or4b_1 A B C D_N VGND VPWR X VNB VPB
X0 X a_215_297# VPWR VPB sky130_fd_pr__pfet_01v8_hvt ad=2.75e+11p pd=2.55e+06u as=4.057e+11p ps=4.04e+06u w=1e+06u l=150000u
X1 a_109_53# D_N VGND VNB sky130_fd_pr__nfet_01v8 ad=1.092e+11p pd=1.36e+06u as=5.3555e+11p ps=6.08e+06u w=420000u l=150000u
X2 a_215_297# a_109_53# VGND VNB sky130_fd_pr__nfet_01v8 ad=2.415e+11p pd=2.83e+06u as=0p ps=0u w=420000u l=150000u
X3 X a_215_297# VGND VNB sky130_fd_pr__nfet_01v8 ad=1.7875e+11p pd=1.85e+06u as=0p ps=0u w=650000u l=150000u
X4 a_392_297# C a_297_297# VPB sky130_fd_pr__pfet_01v8_hvt ad=9.03e+10p pd=1.27e+06u as=1.365e+11p ps=1.49e+06u w=420000u l=150000u
X5 a_465_297# B a_392_297# VPB sky130_fd_pr__pfet_01v8_hvt ad=1.281e+11p pd=1.45e+06u as=0p ps=0u w=420000u l=150000u
X6 a_215_297# B VGND VNB sky130_fd_pr__nfet_01v8 ad=0p pd=0u as=0p ps=0u w=420000u l=150000u
X7 VPWR A a_465_297# VPB sky130_fd_pr__pfet_01v8_hvt ad=0p pd=0u as=0p ps=0u w=420000u l=150000u
X8 a_297_297# a_109_53# a_215_297# VPB sky130_fd_pr__pfet_01v8_hvt ad=0p pd=0u as=1.092e+11p ps=1.36e+06u w=420000u l=150000u
X9 a_109_53# D_N VPWR VPB sky130_fd_pr__pfet_01v8_hvt ad=1.092e+11p pd=1.36e+06u as=0p ps=0u w=420000u l=150000u
X10 VGND C a_215_297# VNB sky130_fd_pr__nfet_01v8 ad=0p pd=0u as=0p ps=0u w=420000u l=150000u
X11 VGND A a_215_297# VNB sky130_fd_pr__nfet_01v8 ad=0p pd=0u as=0p ps=0u w=420000u l=150000u
.ends

.subckt sky130_fd_sc_hd__and3_1 A B C VGND VPWR X VNB VPB
X0 VPWR A a_27_47# VPB sky130_fd_pr__pfet_01v8_hvt ad=3.9785e+11p pd=4.05e+06u as=2.415e+11p ps=2.83e+06u w=420000u l=150000u
X1 VPWR C a_27_47# VPB sky130_fd_pr__pfet_01v8_hvt ad=0p pd=0u as=0p ps=0u w=420000u l=150000u
X2 a_181_47# B a_109_47# VNB sky130_fd_pr__nfet_01v8 ad=8.82e+10p pd=1.26e+06u as=8.82e+10p ps=1.26e+06u w=420000u l=150000u
X3 VGND C a_181_47# VNB sky130_fd_pr__nfet_01v8 ad=2.633e+11p pd=2.28e+06u as=0p ps=0u w=420000u l=150000u
X4 a_27_47# B VPWR VPB sky130_fd_pr__pfet_01v8_hvt ad=0p pd=0u as=0p ps=0u w=420000u l=150000u
X5 X a_27_47# VPWR VPB sky130_fd_pr__pfet_01v8_hvt ad=2.6e+11p pd=2.52e+06u as=0p ps=0u w=1e+06u l=150000u
X6 X a_27_47# VGND VNB sky130_fd_pr__nfet_01v8 ad=1.69e+11p pd=1.82e+06u as=0p ps=0u w=650000u l=150000u
X7 a_109_47# A a_27_47# VNB sky130_fd_pr__nfet_01v8 ad=0p pd=0u as=1.092e+11p ps=1.36e+06u w=420000u l=150000u
.ends

.subckt sky130_fd_sc_hd__or2_1 A B VGND VPWR X VNB VPB
X0 VGND A a_68_297# VNB sky130_fd_pr__nfet_01v8 ad=3.097e+11p pd=3.33e+06u as=1.134e+11p ps=1.38e+06u w=420000u l=150000u
X1 a_68_297# B VGND VNB sky130_fd_pr__nfet_01v8 ad=0p pd=0u as=0p ps=0u w=420000u l=150000u
X2 X a_68_297# VGND VNB sky130_fd_pr__nfet_01v8 ad=1.69e+11p pd=1.82e+06u as=0p ps=0u w=650000u l=150000u
X3 VPWR A a_150_297# VPB sky130_fd_pr__pfet_01v8_hvt ad=2.915e+11p pd=2.67e+06u as=8.82e+10p ps=1.26e+06u w=420000u l=150000u
X4 X a_68_297# VPWR VPB sky130_fd_pr__pfet_01v8_hvt ad=3.4e+11p pd=2.68e+06u as=0p ps=0u w=1e+06u l=150000u
X5 a_150_297# B a_68_297# VPB sky130_fd_pr__pfet_01v8_hvt ad=0p pd=0u as=1.092e+11p ps=1.36e+06u w=420000u l=150000u
.ends

.subckt sky130_fd_sc_hd__o21ai_1 A1 A2 B1 VGND VPWR Y VNB VPB
X0 Y A2 a_109_297# VPB sky130_fd_pr__pfet_01v8_hvt ad=3.48e+11p pd=2.78e+06u as=2.1e+11p ps=2.42e+06u w=1e+06u l=150000u
X1 VPWR B1 Y VPB sky130_fd_pr__pfet_01v8_hvt ad=4.42e+11p pd=4.44e+06u as=0p ps=0u w=700000u l=150000u
X2 a_27_47# A2 VGND VNB sky130_fd_pr__nfet_01v8 ad=3.445e+11p pd=3.66e+06u as=2.145e+11p ps=1.96e+06u w=650000u l=150000u
X3 Y B1 a_27_47# VNB sky130_fd_pr__nfet_01v8 ad=1.69e+11p pd=1.82e+06u as=0p ps=0u w=650000u l=150000u
X4 a_109_297# A1 VPWR VPB sky130_fd_pr__pfet_01v8_hvt ad=0p pd=0u as=0p ps=0u w=1e+06u l=150000u
X5 VGND A1 a_27_47# VNB sky130_fd_pr__nfet_01v8 ad=0p pd=0u as=0p ps=0u w=650000u l=150000u
.ends

.subckt sky130_fd_sc_hd__o22ai_1 A1 A2 B1 B2 VGND VPWR Y VNB VPB
X0 VGND A2 a_27_47# VNB sky130_fd_pr__nfet_01v8 ad=1.755e+11p pd=1.84e+06u as=5.6875e+11p ps=5.65e+06u w=650000u l=150000u
X1 a_27_47# B2 Y VNB sky130_fd_pr__nfet_01v8 ad=0p pd=0u as=1.8525e+11p ps=1.87e+06u w=650000u l=150000u
X2 VPWR A1 a_307_297# VPB sky130_fd_pr__pfet_01v8_hvt ad=5.3e+11p pd=5.06e+06u as=2.1e+11p ps=2.42e+06u w=1e+06u l=150000u
X3 a_307_297# A2 Y VPB sky130_fd_pr__pfet_01v8_hvt ad=0p pd=0u as=4.65e+11p ps=2.93e+06u w=1e+06u l=150000u
X4 a_27_47# A1 VGND VNB sky130_fd_pr__nfet_01v8 ad=0p pd=0u as=0p ps=0u w=650000u l=150000u
X5 Y B2 a_109_297# VPB sky130_fd_pr__pfet_01v8_hvt ad=0p pd=0u as=2.25e+11p ps=2.45e+06u w=1e+06u l=150000u
X6 a_109_297# B1 VPWR VPB sky130_fd_pr__pfet_01v8_hvt ad=0p pd=0u as=0p ps=0u w=1e+06u l=150000u
X7 Y B1 a_27_47# VNB sky130_fd_pr__nfet_01v8 ad=0p pd=0u as=0p ps=0u w=650000u l=150000u
.ends

.subckt sky130_fd_sc_hd__a221oi_1 A1 A2 B1 B2 C1 VGND VPWR Y VNB VPB
X0 a_465_47# A1 Y VNB sky130_fd_pr__nfet_01v8 ad=1.9825e+11p pd=1.91e+06u as=5.07e+11p ps=5.46e+06u w=650000u l=150000u
X1 a_109_297# B1 a_193_297# VPB sky130_fd_pr__pfet_01v8_hvt ad=5.3e+11p pd=5.06e+06u as=5.75e+11p ps=5.15e+06u w=1e+06u l=150000u
X2 a_193_297# B2 a_109_297# VPB sky130_fd_pr__pfet_01v8_hvt ad=0p pd=0u as=0p ps=0u w=1e+06u l=150000u
X3 a_204_47# B2 VGND VNB sky130_fd_pr__nfet_01v8 ad=1.3975e+11p pd=1.73e+06u as=4.095e+11p ps=3.86e+06u w=650000u l=150000u
X4 VGND A2 a_465_47# VNB sky130_fd_pr__nfet_01v8 ad=0p pd=0u as=0p ps=0u w=650000u l=150000u
X5 a_193_297# A1 VPWR VPB sky130_fd_pr__pfet_01v8_hvt ad=0p pd=0u as=5.65e+11p ps=5.13e+06u w=1e+06u l=150000u
X6 Y B1 a_204_47# VNB sky130_fd_pr__nfet_01v8 ad=0p pd=0u as=0p ps=0u w=650000u l=150000u
X7 VPWR A2 a_193_297# VPB sky130_fd_pr__pfet_01v8_hvt ad=0p pd=0u as=0p ps=0u w=1e+06u l=150000u
X8 a_109_297# C1 Y VPB sky130_fd_pr__pfet_01v8_hvt ad=0p pd=0u as=2.6e+11p ps=2.52e+06u w=1e+06u l=150000u
X9 VGND C1 Y VNB sky130_fd_pr__nfet_01v8 ad=0p pd=0u as=0p ps=0u w=650000u l=150000u
.ends

.subckt sky130_fd_sc_hd__o211a_1 A1 A2 B1 C1 VGND VPWR X VNB VPB
X0 VGND A1 a_215_47# VNB sky130_fd_pr__nfet_01v8 ad=3.8025e+11p pd=3.77e+06u as=4.55e+11p ps=4e+06u w=650000u l=150000u
X1 a_510_47# B1 a_215_47# VNB sky130_fd_pr__nfet_01v8 ad=2.275e+11p pd=2e+06u as=0p ps=0u w=650000u l=150000u
X2 a_79_21# C1 VPWR VPB sky130_fd_pr__pfet_01v8_hvt ad=7.4e+11p pd=5.48e+06u as=8.7e+11p ps=7.74e+06u w=1e+06u l=150000u
X3 VPWR B1 a_79_21# VPB sky130_fd_pr__pfet_01v8_hvt ad=0p pd=0u as=0p ps=0u w=1e+06u l=150000u
X4 a_79_21# A2 a_297_297# VPB sky130_fd_pr__pfet_01v8_hvt ad=0p pd=0u as=3.25e+11p ps=2.65e+06u w=1e+06u l=150000u
X5 a_297_297# A1 VPWR VPB sky130_fd_pr__pfet_01v8_hvt ad=0p pd=0u as=0p ps=0u w=1e+06u l=150000u
X6 a_79_21# C1 a_510_47# VNB sky130_fd_pr__nfet_01v8 ad=1.95e+11p pd=1.9e+06u as=0p ps=0u w=650000u l=150000u
X7 VPWR a_79_21# X VPB sky130_fd_pr__pfet_01v8_hvt ad=0p pd=0u as=2.6e+11p ps=2.52e+06u w=1e+06u l=150000u
X8 VGND a_79_21# X VNB sky130_fd_pr__nfet_01v8 ad=0p pd=0u as=1.69e+11p ps=1.82e+06u w=650000u l=150000u
X9 a_215_47# A2 VGND VNB sky130_fd_pr__nfet_01v8 ad=0p pd=0u as=0p ps=0u w=650000u l=150000u
.ends

.subckt sky130_fd_sc_hd__a21o_1 A1 A2 B1 VGND VPWR X VNB VPB
X0 a_81_21# B1 VGND VNB sky130_fd_pr__nfet_01v8 ad=1.7875e+11p pd=1.85e+06u as=6.8575e+11p ps=4.71e+06u w=650000u l=150000u
X1 a_299_297# B1 a_81_21# VPB sky130_fd_pr__pfet_01v8_hvt ad=5.4e+11p pd=5.08e+06u as=2.6e+11p ps=2.52e+06u w=1e+06u l=150000u
X2 VPWR a_81_21# X VPB sky130_fd_pr__pfet_01v8_hvt ad=5.4e+11p pd=5.08e+06u as=2.6e+11p ps=2.52e+06u w=1e+06u l=150000u
X3 VPWR A1 a_299_297# VPB sky130_fd_pr__pfet_01v8_hvt ad=0p pd=0u as=0p ps=0u w=1e+06u l=150000u
X4 VGND a_81_21# X VNB sky130_fd_pr__nfet_01v8 ad=0p pd=0u as=1.69e+11p ps=1.82e+06u w=650000u l=150000u
X5 VGND A2 a_384_47# VNB sky130_fd_pr__nfet_01v8 ad=0p pd=0u as=1.82e+11p ps=1.86e+06u w=650000u l=150000u
X6 a_299_297# A2 VPWR VPB sky130_fd_pr__pfet_01v8_hvt ad=0p pd=0u as=0p ps=0u w=1e+06u l=150000u
X7 a_384_47# A1 a_81_21# VNB sky130_fd_pr__nfet_01v8 ad=0p pd=0u as=0p ps=0u w=650000u l=150000u
.ends

.subckt sky130_fd_sc_hd__clkbuf_16 A VGND VPWR X VNB VPB
X0 VPWR A a_110_47# VPB sky130_fd_pr__pfet_01v8_hvt ad=3.045e+12p pd=2.809e+07u as=5.6e+11p ps=5.12e+06u w=1e+06u l=150000u
X1 VPWR a_110_47# X VPB sky130_fd_pr__pfet_01v8_hvt ad=0p pd=0u as=2.24e+12p ps=2.048e+07u w=1e+06u l=150000u
X2 X a_110_47# VPWR VPB sky130_fd_pr__pfet_01v8_hvt ad=0p pd=0u as=0p ps=0u w=1e+06u l=150000u
X3 X a_110_47# VPWR VPB sky130_fd_pr__pfet_01v8_hvt ad=0p pd=0u as=0p ps=0u w=1e+06u l=150000u
X4 VPWR a_110_47# X VPB sky130_fd_pr__pfet_01v8_hvt ad=0p pd=0u as=0p ps=0u w=1e+06u l=150000u
X5 VPWR a_110_47# X VPB sky130_fd_pr__pfet_01v8_hvt ad=0p pd=0u as=0p ps=0u w=1e+06u l=150000u
X6 a_110_47# A VPWR VPB sky130_fd_pr__pfet_01v8_hvt ad=0p pd=0u as=0p ps=0u w=1e+06u l=150000u
X7 a_110_47# A VGND VNB sky130_fd_pr__nfet_01v8 ad=2.352e+11p pd=2.8e+06u as=1.2789e+12p ps=1.533e+07u w=420000u l=150000u
X8 VGND a_110_47# X VNB sky130_fd_pr__nfet_01v8 ad=0p pd=0u as=9.408e+11p ps=1.12e+07u w=420000u l=150000u
X9 X a_110_47# VGND VNB sky130_fd_pr__nfet_01v8 ad=0p pd=0u as=0p ps=0u w=420000u l=150000u
X10 VGND a_110_47# X VNB sky130_fd_pr__nfet_01v8 ad=0p pd=0u as=0p ps=0u w=420000u l=150000u
X11 a_110_47# A VPWR VPB sky130_fd_pr__pfet_01v8_hvt ad=0p pd=0u as=0p ps=0u w=1e+06u l=150000u
X12 VGND A a_110_47# VNB sky130_fd_pr__nfet_01v8 ad=0p pd=0u as=0p ps=0u w=420000u l=150000u
X13 VGND a_110_47# X VNB sky130_fd_pr__nfet_01v8 ad=0p pd=0u as=0p ps=0u w=420000u l=150000u
X14 VPWR a_110_47# X VPB sky130_fd_pr__pfet_01v8_hvt ad=0p pd=0u as=0p ps=0u w=1e+06u l=150000u
X15 X a_110_47# VPWR VPB sky130_fd_pr__pfet_01v8_hvt ad=0p pd=0u as=0p ps=0u w=1e+06u l=150000u
X16 VGND A a_110_47# VNB sky130_fd_pr__nfet_01v8 ad=0p pd=0u as=0p ps=0u w=420000u l=150000u
X17 VGND a_110_47# X VNB sky130_fd_pr__nfet_01v8 ad=0p pd=0u as=0p ps=0u w=420000u l=150000u
X18 VPWR a_110_47# X VPB sky130_fd_pr__pfet_01v8_hvt ad=0p pd=0u as=0p ps=0u w=1e+06u l=150000u
X19 VGND a_110_47# X VNB sky130_fd_pr__nfet_01v8 ad=0p pd=0u as=0p ps=0u w=420000u l=150000u
X20 X a_110_47# VPWR VPB sky130_fd_pr__pfet_01v8_hvt ad=0p pd=0u as=0p ps=0u w=1e+06u l=150000u
X21 a_110_47# A VGND VNB sky130_fd_pr__nfet_01v8 ad=0p pd=0u as=0p ps=0u w=420000u l=150000u
X22 VPWR A a_110_47# VPB sky130_fd_pr__pfet_01v8_hvt ad=0p pd=0u as=0p ps=0u w=1e+06u l=150000u
X23 VPWR a_110_47# X VPB sky130_fd_pr__pfet_01v8_hvt ad=0p pd=0u as=0p ps=0u w=1e+06u l=150000u
X24 VPWR a_110_47# X VPB sky130_fd_pr__pfet_01v8_hvt ad=0p pd=0u as=0p ps=0u w=1e+06u l=150000u
X25 VGND a_110_47# X VNB sky130_fd_pr__nfet_01v8 ad=0p pd=0u as=0p ps=0u w=420000u l=150000u
X26 X a_110_47# VPWR VPB sky130_fd_pr__pfet_01v8_hvt ad=0p pd=0u as=0p ps=0u w=1e+06u l=150000u
X27 VGND a_110_47# X VNB sky130_fd_pr__nfet_01v8 ad=0p pd=0u as=0p ps=0u w=420000u l=150000u
X28 VGND a_110_47# X VNB sky130_fd_pr__nfet_01v8 ad=0p pd=0u as=0p ps=0u w=420000u l=150000u
X29 X a_110_47# VGND VNB sky130_fd_pr__nfet_01v8 ad=0p pd=0u as=0p ps=0u w=420000u l=150000u
X30 X a_110_47# VPWR VPB sky130_fd_pr__pfet_01v8_hvt ad=0p pd=0u as=0p ps=0u w=1e+06u l=150000u
X31 X a_110_47# VPWR VPB sky130_fd_pr__pfet_01v8_hvt ad=0p pd=0u as=0p ps=0u w=1e+06u l=150000u
X32 X a_110_47# VGND VNB sky130_fd_pr__nfet_01v8 ad=0p pd=0u as=0p ps=0u w=420000u l=150000u
X33 VPWR a_110_47# X VPB sky130_fd_pr__pfet_01v8_hvt ad=0p pd=0u as=0p ps=0u w=1e+06u l=150000u
X34 X a_110_47# VPWR VPB sky130_fd_pr__pfet_01v8_hvt ad=0p pd=0u as=0p ps=0u w=1e+06u l=150000u
X35 X a_110_47# VGND VNB sky130_fd_pr__nfet_01v8 ad=0p pd=0u as=0p ps=0u w=420000u l=150000u
X36 X a_110_47# VGND VNB sky130_fd_pr__nfet_01v8 ad=0p pd=0u as=0p ps=0u w=420000u l=150000u
X37 X a_110_47# VGND VNB sky130_fd_pr__nfet_01v8 ad=0p pd=0u as=0p ps=0u w=420000u l=150000u
X38 X a_110_47# VGND VNB sky130_fd_pr__nfet_01v8 ad=0p pd=0u as=0p ps=0u w=420000u l=150000u
X39 X a_110_47# VGND VNB sky130_fd_pr__nfet_01v8 ad=0p pd=0u as=0p ps=0u w=420000u l=150000u
.ends

.subckt sky130_fd_sc_hd__a32o_1 A1 A2 A3 B1 B2 VGND VPWR X VNB VPB
X0 a_93_21# A1 a_346_47# VNB sky130_fd_pr__nfet_01v8 ad=2.86e+11p pd=2.18e+06u as=2.925e+11p ps=2.2e+06u w=650000u l=150000u
X1 a_93_21# B1 a_250_297# VPB sky130_fd_pr__pfet_01v8_hvt ad=2.8e+11p pd=2.56e+06u as=9.65e+11p ps=7.93e+06u w=1e+06u l=150000u
X2 a_584_47# B1 a_93_21# VNB sky130_fd_pr__nfet_01v8 ad=1.365e+11p pd=1.72e+06u as=0p ps=0u w=650000u l=150000u
X3 VPWR a_93_21# X VPB sky130_fd_pr__pfet_01v8_hvt ad=9.35e+11p pd=5.87e+06u as=3.3e+11p ps=2.66e+06u w=1e+06u l=150000u
X4 VGND B2 a_584_47# VNB sky130_fd_pr__nfet_01v8 ad=5.07e+11p pd=4.16e+06u as=0p ps=0u w=650000u l=150000u
X5 a_256_47# A3 VGND VNB sky130_fd_pr__nfet_01v8 ad=1.95e+11p pd=1.9e+06u as=0p ps=0u w=650000u l=150000u
X6 a_250_297# B2 a_93_21# VPB sky130_fd_pr__pfet_01v8_hvt ad=0p pd=0u as=0p ps=0u w=1e+06u l=150000u
X7 VGND a_93_21# X VNB sky130_fd_pr__nfet_01v8 ad=0p pd=0u as=2.145e+11p ps=1.96e+06u w=650000u l=150000u
X8 a_250_297# A3 VPWR VPB sky130_fd_pr__pfet_01v8_hvt ad=0p pd=0u as=0p ps=0u w=1e+06u l=150000u
X9 VPWR A2 a_250_297# VPB sky130_fd_pr__pfet_01v8_hvt ad=0p pd=0u as=0p ps=0u w=1e+06u l=150000u
X10 a_250_297# A1 VPWR VPB sky130_fd_pr__pfet_01v8_hvt ad=0p pd=0u as=0p ps=0u w=1e+06u l=150000u
X11 a_346_47# A2 a_256_47# VNB sky130_fd_pr__nfet_01v8 ad=0p pd=0u as=0p ps=0u w=650000u l=150000u
.ends

.subckt sky130_fd_sc_hd__dlymetal6s2s_1 A VGND VPWR X VNB VPB
X0 a_558_47# a_381_47# VPWR VPB sky130_fd_pr__pfet_01v8_hvt ad=2.6e+11p pd=2.52e+06u as=8.445e+11p ps=7.95e+06u w=1e+06u l=150000u
X1 VGND X a_381_47# VNB sky130_fd_pr__nfet_01v8 ad=5.82e+11p pd=5.85e+06u as=1.092e+11p ps=1.36e+06u w=420000u l=150000u
X2 a_841_47# a_664_47# VPWR VPB sky130_fd_pr__pfet_01v8_hvt ad=2.6e+11p pd=2.52e+06u as=0p ps=0u w=1e+06u l=150000u
X3 VPWR A a_62_47# VPB sky130_fd_pr__pfet_01v8_hvt ad=0p pd=0u as=1.092e+11p ps=1.36e+06u w=420000u l=150000u
X4 VGND A a_62_47# VNB sky130_fd_pr__nfet_01v8 ad=0p pd=0u as=1.092e+11p ps=1.36e+06u w=420000u l=150000u
X5 a_558_47# a_381_47# VGND VNB sky130_fd_pr__nfet_01v8 ad=1.69e+11p pd=1.82e+06u as=0p ps=0u w=650000u l=150000u
X6 X a_62_47# VPWR VPB sky130_fd_pr__pfet_01v8_hvt ad=2.6e+11p pd=2.52e+06u as=0p ps=0u w=1e+06u l=150000u
X7 VPWR X a_381_47# VPB sky130_fd_pr__pfet_01v8_hvt ad=0p pd=0u as=1.092e+11p ps=1.36e+06u w=420000u l=150000u
X8 a_841_47# a_664_47# VGND VNB sky130_fd_pr__nfet_01v8 ad=1.69e+11p pd=1.82e+06u as=0p ps=0u w=650000u l=150000u
X9 X a_62_47# VGND VNB sky130_fd_pr__nfet_01v8 ad=1.69e+11p pd=1.82e+06u as=0p ps=0u w=650000u l=150000u
X10 VPWR a_558_47# a_664_47# VPB sky130_fd_pr__pfet_01v8_hvt ad=0p pd=0u as=1.092e+11p ps=1.36e+06u w=420000u l=150000u
X11 VGND a_558_47# a_664_47# VNB sky130_fd_pr__nfet_01v8 ad=0p pd=0u as=1.092e+11p ps=1.36e+06u w=420000u l=150000u
.ends

.subckt sky130_fd_sc_hd__xnor2_1 A B VGND VPWR Y VNB VPB
X0 a_377_297# A VPWR VPB sky130_fd_pr__pfet_01v8_hvt ad=2.1e+11p pd=2.42e+06u as=1.39e+12p ps=8.78e+06u w=1e+06u l=150000u
X1 a_47_47# B VPWR VPB sky130_fd_pr__pfet_01v8_hvt ad=2.7e+11p pd=2.54e+06u as=0p ps=0u w=1e+06u l=150000u
X2 a_129_47# B a_47_47# VNB sky130_fd_pr__nfet_01v8 ad=1.365e+11p pd=1.72e+06u as=1.69e+11p ps=1.82e+06u w=650000u l=150000u
X3 a_285_47# B VGND VNB sky130_fd_pr__nfet_01v8 ad=3.445e+11p pd=3.66e+06u as=3.445e+11p ps=3.66e+06u w=650000u l=150000u
X4 Y a_47_47# a_285_47# VNB sky130_fd_pr__nfet_01v8 ad=1.95e+11p pd=1.9e+06u as=0p ps=0u w=650000u l=150000u
X5 VGND A a_129_47# VNB sky130_fd_pr__nfet_01v8 ad=0p pd=0u as=0p ps=0u w=650000u l=150000u
X6 VPWR A a_47_47# VPB sky130_fd_pr__pfet_01v8_hvt ad=0p pd=0u as=0p ps=0u w=1e+06u l=150000u
X7 VPWR a_47_47# Y VPB sky130_fd_pr__pfet_01v8_hvt ad=0p pd=0u as=3.3e+11p ps=2.66e+06u w=1e+06u l=150000u