* NGSPICE file created from fll_wrapper_2.ext - technology: sky130A

* Black-box entry subcircuit for sky130_fd_sc_hd__decap_4 abstract view
.subckt sky130_fd_sc_hd__decap_4 VGND VNB VPB VPWR
.ends

* Black-box entry subcircuit for sky130_fd_sc_hd__decap_12 abstract view
.subckt sky130_fd_sc_hd__decap_12 VGND VNB VPB VPWR
.ends

* Black-box entry subcircuit for sky130_fd_sc_hd__clkbuf_1 abstract view
.subckt sky130_fd_sc_hd__clkbuf_1 A VGND VNB VPB VPWR X
.ends

* Black-box entry subcircuit for sky130_fd_sc_hd__clkbuf_2 abstract view
.subckt sky130_fd_sc_hd__clkbuf_2 A VGND VNB VPB VPWR X
.ends

* Black-box entry subcircuit for sky130_fd_sc_hd__inv_2 abstract view
.subckt sky130_fd_sc_hd__inv_2 A VGND VNB VPB VPWR Y
.ends

* Black-box entry subcircuit for sky130_fd_sc_hd__decap_8 abstract view
.subckt sky130_fd_sc_hd__decap_8 VGND VNB VPB VPWR
.ends

* Black-box entry subcircuit for sky130_fd_sc_hd__nor2_1 abstract view
.subckt sky130_fd_sc_hd__nor2_1 A B VGND VNB VPB VPWR Y
.ends

* Black-box entry subcircuit for sky130_fd_sc_hd__or4bb_1 abstract view
.subckt sky130_fd_sc_hd__or4bb_1 A B C_N D_N VGND VNB VPB VPWR X
.ends

* Black-box entry subcircuit for sky130_fd_sc_hd__a221o_1 abstract view
.subckt sky130_fd_sc_hd__a221o_1 A1 A2 B1 B2 C1 VGND VNB VPB VPWR X
.ends

* Black-box entry subcircuit for sky130_fd_sc_hd__fill_1 abstract view
.subckt sky130_fd_sc_hd__fill_1 VGND VNB VPB VPWR
.ends

* Black-box entry subcircuit for sky130_fd_sc_hd__dfrtp_1 abstract view
.subckt sky130_fd_sc_hd__dfrtp_1 CLK D RESET_B VGND VNB VPB VPWR Q
.ends

* Black-box entry subcircuit for sky130_fd_sc_hd__decap_6 abstract view
.subckt sky130_fd_sc_hd__decap_6 VGND VNB VPB VPWR
.ends

* Black-box entry subcircuit for sky130_fd_sc_hd__decap_3 abstract view
.subckt sky130_fd_sc_hd__decap_3 VGND VNB VPB VPWR
.ends

* Black-box entry subcircuit for sky130_fd_sc_hd__tapvpwrvgnd_1 abstract view
.subckt sky130_fd_sc_hd__tapvpwrvgnd_1 VGND VPWR
.ends

* Black-box entry subcircuit for sky130_fd_sc_hd__mux2_1 abstract view
.subckt sky130_fd_sc_hd__mux2_1 A0 A1 S VGND VNB VPB VPWR X
.ends

* Black-box entry subcircuit for sky130_fd_sc_hd__and2_1 abstract view
.subckt sky130_fd_sc_hd__and2_1 A B VGND VNB VPB VPWR X
.ends

* Black-box entry subcircuit for sky130_fd_sc_hd__o221a_1 abstract view
.subckt sky130_fd_sc_hd__o221a_1 A1 A2 B1 B2 C1 VGND VNB VPB VPWR X
.ends

* Black-box entry subcircuit for sky130_fd_sc_hd__xnor2_1 abstract view
.subckt sky130_fd_sc_hd__xnor2_1 A B VGND VNB VPB VPWR Y
.ends

* Black-box entry subcircuit for sky130_fd_sc_hd__fill_2 abstract view
.subckt sky130_fd_sc_hd__fill_2 VGND VNB VPB VPWR
.ends

* Black-box entry subcircuit for sky130_fd_sc_hd__xor2_1 abstract view
.subckt sky130_fd_sc_hd__xor2_1 A B VGND VNB VPB VPWR X
.ends

* Black-box entry subcircuit for sky130_fd_sc_hd__or2_1 abstract view
.subckt sky130_fd_sc_hd__or2_1 A B VGND VNB VPB VPWR X
.ends

* Black-box entry subcircuit for sky130_fd_sc_hd__a21o_1 abstract view
.subckt sky130_fd_sc_hd__a21o_1 A1 A2 B1 VGND VNB VPB VPWR X
.ends

* Black-box entry subcircuit for sky130_fd_sc_hd__a21oi_1 abstract view
.subckt sky130_fd_sc_hd__a21oi_1 A1 A2 B1 VGND VNB VPB VPWR Y
.ends

* Black-box entry subcircuit for sky130_fd_sc_hd__buf_2 abstract view
.subckt sky130_fd_sc_hd__buf_2 A VGND VNB VPB VPWR X
.ends

* Black-box entry subcircuit for sky130_fd_sc_hd__o21a_1 abstract view
.subckt sky130_fd_sc_hd__o21a_1 A1 A2 B1 VGND VNB VPB VPWR X
.ends

* Black-box entry subcircuit for sky130_fd_sc_hd__a22o_1 abstract view
.subckt sky130_fd_sc_hd__a22o_1 A1 A2 B1 B2 VGND VNB VPB VPWR X
.ends

* Black-box entry subcircuit for sky130_fd_sc_hd__and2b_1 abstract view
.subckt sky130_fd_sc_hd__and2b_1 A_N B VGND VNB VPB VPWR X
.ends

* Black-box entry subcircuit for sky130_fd_sc_hd__o21ba_1 abstract view
.subckt sky130_fd_sc_hd__o21ba_1 A1 A2 B1_N VGND VNB VPB VPWR X
.ends

* Black-box entry subcircuit for sky130_fd_sc_hd__dfxtp_1 abstract view
.subckt sky130_fd_sc_hd__dfxtp_1 CLK D VGND VNB VPB VPWR Q
.ends

* Black-box entry subcircuit for sky130_fd_sc_hd__o22a_1 abstract view
.subckt sky130_fd_sc_hd__o22a_1 A1 A2 B1 B2 VGND VNB VPB VPWR X
.ends

* Black-box entry subcircuit for sky130_fd_sc_hd__or2b_1 abstract view
.subckt sky130_fd_sc_hd__or2b_1 A B_N VGND VNB VPB VPWR X
.ends

* Black-box entry subcircuit for sky130_fd_sc_hd__dfrtp_4 abstract view
.subckt sky130_fd_sc_hd__dfrtp_4 CLK D RESET_B VGND VNB VPB VPWR Q
.ends

* Black-box entry subcircuit for sky130_fd_sc_hd__and3_1 abstract view
.subckt sky130_fd_sc_hd__and3_1 A B C VGND VNB VPB VPWR X
.ends

* Black-box entry subcircuit for sky130_fd_sc_hd__clkbuf_16 abstract view
.subckt sky130_fd_sc_hd__clkbuf_16 A VGND VNB VPB VPWR X
.ends

* Black-box entry subcircuit for sky130_fd_sc_hd__dfstp_1 abstract view
.subckt sky130_fd_sc_hd__dfstp_1 CLK D SET_B VGND VNB VPB VPWR Q
.ends

* Black-box entry subcircuit for sky130_fd_sc_hd__and3b_1 abstract view
.subckt sky130_fd_sc_hd__and3b_1 A_N B C VGND VNB VPB VPWR X
.ends

* Black-box entry subcircuit for sky130_fd_sc_hd__nand2_1 abstract view
.subckt sky130_fd_sc_hd__nand2_1 A B VGND VNB VPB VPWR Y
.ends

* Black-box entry subcircuit for sky130_fd_sc_hd__dfrtp_2 abstract view
.subckt sky130_fd_sc_hd__dfrtp_2 CLK D RESET_B VGND VNB VPB VPWR Q
.ends

* Black-box entry subcircuit for sky130_fd_sc_hd__o211a_1 abstract view
.subckt sky130_fd_sc_hd__o211a_1 A1 A2 B1 C1 VGND VNB VPB VPWR X
.ends

* Black-box entry subcircuit for sky130_fd_sc_hd__nor4_1 abstract view
.subckt sky130_fd_sc_hd__nor4_1 A B C D VGND VNB VPB VPWR Y
.ends

* Black-box entry subcircuit for sky130_fd_sc_hd__or4b_1 abstract view
.subckt sky130_fd_sc_hd__or4b_1 A B C D_N VGND VNB VPB VPWR X
.ends

* Black-box entry subcircuit for sky130_fd_sc_hd__o21ai_1 abstract view
.subckt sky130_fd_sc_hd__o21ai_1 A1 A2 B1 VGND VNB VPB VPWR Y
.ends

* Black-box entry subcircuit for sky130_fd_sc_hd__dlymetal6s2s_1 abstract view
.subckt sky130_fd_sc_hd__dlymetal6s2s_1 A VGND VNB VPB VPWR X
.ends

* Black-box entry subcircuit for sky130_fd_sc_hd__and4_1 abstract view
.subckt sky130_fd_sc_hd__and4_1 A B C D VGND VNB VPB VPWR X
.ends

* Black-box entry subcircuit for sky130_fd_sc_hd__o311a_1 abstract view
.subckt sky130_fd_sc_hd__o311a_1 A1 A2 A3 B1 C1 VGND VNB VPB VPWR X
.ends

* Black-box entry subcircuit for sky130_fd_sc_hd__o31a_1 abstract view
.subckt sky130_fd_sc_hd__o31a_1 A1 A2 A3 B1 VGND VNB VPB VPWR X
.ends

* Black-box entry subcircuit for sky130_fd_sc_hd__buf_12 abstract view
.subckt sky130_fd_sc_hd__buf_12 A VGND VNB VPB VPWR X
.ends

* Black-box entry subcircuit for sky130_fd_sc_hd__a2bb2o_1 abstract view
.subckt sky130_fd_sc_hd__a2bb2o_1 A1_N A2_N B1 B2 VGND VNB VPB VPWR X
.ends

* Black-box entry subcircuit for sky130_fd_sc_hd__o2bb2a_1 abstract view
.subckt sky130_fd_sc_hd__o2bb2a_1 A1_N A2_N B1 B2 VGND VNB VPB VPWR X
.ends

* Black-box entry subcircuit for sky130_fd_sc_hd__o2111a_1 abstract view
.subckt sky130_fd_sc_hd__o2111a_1 A1 A2 B1 C1 D1 VGND VNB VPB VPWR X
.ends

* Black-box entry subcircuit for sky130_fd_sc_hd__a221oi_1 abstract view
.subckt sky130_fd_sc_hd__a221oi_1 A1 A2 B1 B2 C1 VGND VNB VPB VPWR Y
.ends

* Black-box entry subcircuit for sky130_fd_sc_hd__dfstp_2 abstract view
.subckt sky130_fd_sc_hd__dfstp_2 CLK D SET_B VGND VNB VPB VPWR Q
.ends

* Black-box entry subcircuit for sky130_fd_sc_hd__a21oi_2 abstract view
.subckt sky130_fd_sc_hd__a21oi_2 A1 A2 B1 VGND VNB VPB VPWR Y
.ends

* Black-box entry subcircuit for sky130_fd_sc_hd__or3_1 abstract view
.subckt sky130_fd_sc_hd__or3_1 A B C VGND VNB VPB VPWR X
.ends

* Black-box entry subcircuit for sky130_fd_sc_hd__a211o_1 abstract view
.subckt sky130_fd_sc_hd__a211o_1 A1 A2 B1 C1 VGND VNB VPB VPWR X
.ends

* Black-box entry subcircuit for sky130_fd_sc_hd__nand3b_1 abstract view
.subckt sky130_fd_sc_hd__nand3b_1 A_N B C VGND VNB VPB VPWR Y
.ends

.subckt fll_wrapper_2 VGND VPWR clk corner[0] corner[1] corner[2] lock lower[0] lower[1]
+ lower[2] lower[3] lower[4] lower[5] lower[6] lower[7] lower[8] lower[9] pwm ref
+ ref_time[0] ref_time[1] ref_time[2] ref_time[3] ref_time[4] ref_time[5] ref_time[6]
+ ref_time[7] ref_time[8] ref_time[9] reset upper[0] upper[1] upper[2] upper[3] upper[4]
+ upper[5] upper[6] upper[7] upper[8] upper[9]
XFILLER_22_166 VGND VGND VPWR VPWR sky130_fd_sc_hd__decap_4
XFILLER_7_7 VGND VGND VPWR VPWR sky130_fd_sc_hd__decap_12
XFILLER_26_85 VGND VGND VPWR VPWR sky130_fd_sc_hd__decap_4
X_432_ _432_/A VGND VGND VPWR VPWR _614_/D sky130_fd_sc_hd__clkbuf_1
X_363_ _376_/B VGND VGND VPWR VPWR _379_/B sky130_fd_sc_hd__clkbuf_2
X_294_ _592_/Q VGND VGND VPWR VPWR _592_/D sky130_fd_sc_hd__inv_2
XFILLER_3_78 VGND VGND VPWR VPWR sky130_fd_sc_hd__decap_8
X_501_ _595_/Q _501_/B VGND VGND VPWR VPWR _502_/B sky130_fd_sc_hd__nor2_1
X_346_ _346_/A _346_/B _342_/X _345_/X VGND VGND VPWR VPWR _346_/X sky130_fd_sc_hd__or4bb_1
X_415_ _415_/A VGND VGND VPWR VPWR _435_/S sky130_fd_sc_hd__clkbuf_2
XFILLER_10_136 VGND VGND VPWR VPWR sky130_fd_sc_hd__decap_4
X_329_ _320_/Y input4/X input3/X _322_/Y _328_/X VGND VGND VPWR VPWR _329_/X sky130_fd_sc_hd__a221o_1
XFILLER_0_24 VGND VGND VPWR VPWR sky130_fd_sc_hd__decap_4
XFILLER_0_13 VGND VGND VPWR VPWR sky130_fd_sc_hd__decap_8
XFILLER_2_165 VGND VGND VPWR VPWR sky130_fd_sc_hd__decap_8
XFILLER_22_7 VGND VGND VPWR VPWR sky130_fd_sc_hd__fill_1
XFILLER_29_52 VGND VGND VPWR VPWR sky130_fd_sc_hd__decap_4
XFILLER_29_30 VGND VGND VPWR VPWR sky130_fd_sc_hd__decap_4
X_594_ input11/X _594_/D _529_/Y VGND VGND VPWR VPWR _594_/Q sky130_fd_sc_hd__dfrtp_1
XFILLER_19_161 VGND VGND VPWR VPWR sky130_fd_sc_hd__decap_6
XFILLER_13_3 VGND VGND VPWR VPWR sky130_fd_sc_hd__decap_3
X_577_ _580_/A VGND VGND VPWR VPWR _577_/Y sky130_fd_sc_hd__inv_2
XFILLER_16_175 VGND VGND VPWR VPWR sky130_fd_sc_hd__decap_8
XTAP_156 VGND VPWR sky130_fd_sc_hd__tapvpwrvgnd_1
XTAP_145 VGND VPWR sky130_fd_sc_hd__tapvpwrvgnd_1
XTAP_134 VGND VPWR sky130_fd_sc_hd__tapvpwrvgnd_1
XFILLER_22_145 VGND VGND VPWR VPWR sky130_fd_sc_hd__decap_4
XTAP_123 VGND VPWR sky130_fd_sc_hd__tapvpwrvgnd_1
XTAP_112 VGND VPWR sky130_fd_sc_hd__tapvpwrvgnd_1
XTAP_101 VGND VPWR sky130_fd_sc_hd__tapvpwrvgnd_1
XFILLER_26_97 VGND VGND VPWR VPWR sky130_fd_sc_hd__decap_6
XFILLER_26_64 VGND VGND VPWR VPWR sky130_fd_sc_hd__decap_8
X_431_ _428_/A _430_/X _435_/S VGND VGND VPWR VPWR _432_/A sky130_fd_sc_hd__mux2_1
X_362_ _628_/D VGND VGND VPWR VPWR _423_/A sky130_fd_sc_hd__clkbuf_1
XFILLER_13_167 VGND VGND VPWR VPWR sky130_fd_sc_hd__fill_1
XFILLER_3_46 VGND VGND VPWR VPWR sky130_fd_sc_hd__decap_8
X_500_ _595_/Q _501_/B VGND VGND VPWR VPWR _504_/C sky130_fd_sc_hd__and2_1
X_629_ _624_/Q _629_/D _571_/Y VGND VGND VPWR VPWR _629_/Q sky130_fd_sc_hd__dfrtp_1
XFILLER_8_171 VGND VGND VPWR VPWR sky130_fd_sc_hd__decap_4
XFILLER_8_182 VGND VGND VPWR VPWR sky130_fd_sc_hd__fill_1
XFILLER_12_88 VGND VGND VPWR VPWR sky130_fd_sc_hd__decap_4
X_345_ _345_/A1 _465_/A _320_/Y _349_/A2 _340_/X VGND VGND VPWR VPWR _345_/X sky130_fd_sc_hd__o221a_1
X_414_ _414_/A _414_/B VGND VGND VPWR VPWR _414_/Y sky130_fd_sc_hd__xnor2_1
X_328_ _323_/Y input2/X input3/X _322_/Y _327_/X VGND VGND VPWR VPWR _328_/X sky130_fd_sc_hd__o221a_1
XFILLER_9_34 VGND VGND VPWR VPWR sky130_fd_sc_hd__decap_4
XFILLER_18_43 VGND VGND VPWR VPWR sky130_fd_sc_hd__decap_4
XFILLER_28_151 VGND VGND VPWR VPWR sky130_fd_sc_hd__decap_12
X_593_ input11/X _593_/D _528_/Y VGND VGND VPWR VPWR _593_/Q sky130_fd_sc_hd__dfrtp_1
XFILLER_25_110 VGND VGND VPWR VPWR sky130_fd_sc_hd__fill_2
XFILLER_15_22 VGND VGND VPWR VPWR sky130_fd_sc_hd__decap_4
X_576_ _580_/A VGND VGND VPWR VPWR _576_/Y sky130_fd_sc_hd__inv_2
XTAP_157 VGND VPWR sky130_fd_sc_hd__tapvpwrvgnd_1
XTAP_146 VGND VPWR sky130_fd_sc_hd__tapvpwrvgnd_1
XTAP_135 VGND VPWR sky130_fd_sc_hd__tapvpwrvgnd_1
XTAP_124 VGND VPWR sky130_fd_sc_hd__tapvpwrvgnd_1
XTAP_113 VGND VPWR sky130_fd_sc_hd__tapvpwrvgnd_1
XTAP_102 VGND VPWR sky130_fd_sc_hd__tapvpwrvgnd_1
X_430_ _430_/A _430_/B VGND VGND VPWR VPWR _430_/X sky130_fd_sc_hd__xor2_1
X_361_ _633_/D _387_/A VGND VGND VPWR VPWR _400_/B sky130_fd_sc_hd__or2_1
XFILLER_13_135 VGND VGND VPWR VPWR sky130_fd_sc_hd__decap_4
XFILLER_13_113 VGND VGND VPWR VPWR sky130_fd_sc_hd__fill_2
XFILLER_13_102 VGND VGND VPWR VPWR sky130_fd_sc_hd__fill_2
XFILLER_9_106 VGND VGND VPWR VPWR sky130_fd_sc_hd__decap_6
XFILLER_9_139 VGND VGND VPWR VPWR sky130_fd_sc_hd__decap_4
X_628_ _624_/Q _628_/D _570_/Y VGND VGND VPWR VPWR _628_/Q sky130_fd_sc_hd__dfrtp_1
XFILLER_3_14 VGND VGND VPWR VPWR sky130_fd_sc_hd__decap_4
X_559_ _562_/A VGND VGND VPWR VPWR _559_/Y sky130_fd_sc_hd__inv_2
XFILLER_12_67 VGND VGND VPWR VPWR sky130_fd_sc_hd__decap_4
XFILLER_10_149 VGND VGND VPWR VPWR sky130_fd_sc_hd__decap_8
XFILLER_10_116 VGND VGND VPWR VPWR sky130_fd_sc_hd__decap_4
X_344_ _346_/A _342_/X _346_/B VGND VGND VPWR VPWR _344_/X sky130_fd_sc_hd__a21o_1
X_413_ _629_/D _428_/B _419_/A VGND VGND VPWR VPWR _414_/B sky130_fd_sc_hd__a21oi_1
XFILLER_5_120 VGND VGND VPWR VPWR sky130_fd_sc_hd__decap_4
XFILLER_5_142 VGND VGND VPWR VPWR sky130_fd_sc_hd__decap_4
XFILLER_23_11 VGND VGND VPWR VPWR sky130_fd_sc_hd__decap_3
XFILLER_2_123 VGND VGND VPWR VPWR sky130_fd_sc_hd__decap_4
XFILLER_3_3 VGND VGND VPWR VPWR sky130_fd_sc_hd__decap_8
X_327_ _602_/D input1/X input2/X _323_/Y _326_/X VGND VGND VPWR VPWR _327_/X sky130_fd_sc_hd__a221o_1
XFILLER_9_57 VGND VGND VPWR VPWR sky130_fd_sc_hd__decap_6
XFILLER_15_8 VGND VGND VPWR VPWR sky130_fd_sc_hd__decap_4
XFILLER_29_108 VGND VGND VPWR VPWR sky130_fd_sc_hd__decap_4
XFILLER_29_87 VGND VGND VPWR VPWR sky130_fd_sc_hd__fill_1
XFILLER_28_163 VGND VGND VPWR VPWR sky130_fd_sc_hd__decap_12
X_592_ input11/X _592_/D _527_/Y VGND VGND VPWR VPWR _592_/Q sky130_fd_sc_hd__dfrtp_1
XFILLER_6_36 VGND VGND VPWR VPWR sky130_fd_sc_hd__fill_1
XFILLER_6_47 VGND VGND VPWR VPWR sky130_fd_sc_hd__decap_4
XFILLER_6_58 VGND VGND VPWR VPWR sky130_fd_sc_hd__decap_8
X_644_ input11/X _644_/D _588_/Y VGND VGND VPWR VPWR _644_/Q sky130_fd_sc_hd__dfrtp_1
XFILLER_16_122 VGND VGND VPWR VPWR sky130_fd_sc_hd__decap_4
X_575_ _581_/A VGND VGND VPWR VPWR _580_/A sky130_fd_sc_hd__buf_2
Xoutput33 _589_/Q VGND VGND VPWR VPWR corner[0] sky130_fd_sc_hd__buf_2
XTAP_158 VGND VPWR sky130_fd_sc_hd__tapvpwrvgnd_1
XTAP_147 VGND VPWR sky130_fd_sc_hd__tapvpwrvgnd_1
XTAP_136 VGND VPWR sky130_fd_sc_hd__tapvpwrvgnd_1
XTAP_125 VGND VPWR sky130_fd_sc_hd__tapvpwrvgnd_1
XTAP_114 VGND VPWR sky130_fd_sc_hd__tapvpwrvgnd_1
XTAP_103 VGND VPWR sky130_fd_sc_hd__tapvpwrvgnd_1
XFILLER_26_55 VGND VGND VPWR VPWR sky130_fd_sc_hd__decap_4
XFILLER_26_44 VGND VGND VPWR VPWR sky130_fd_sc_hd__decap_4
X_360_ _623_/Q _624_/D _396_/A VGND VGND VPWR VPWR _623_/D sky130_fd_sc_hd__o21a_1
XFILLER_13_147 VGND VGND VPWR VPWR sky130_fd_sc_hd__decap_6
X_627_ _624_/Q _627_/D _568_/Y VGND VGND VPWR VPWR _627_/Q sky130_fd_sc_hd__dfrtp_1
X_489_ _641_/Q _489_/B VGND VGND VPWR VPWR _490_/B sky130_fd_sc_hd__nor2_1
X_558_ _562_/A VGND VGND VPWR VPWR _558_/Y sky130_fd_sc_hd__inv_2
XFILLER_12_24 VGND VGND VPWR VPWR sky130_fd_sc_hd__decap_4
XFILLER_12_13 VGND VGND VPWR VPWR sky130_fd_sc_hd__decap_4
XFILLER_10_128 VGND VGND VPWR VPWR sky130_fd_sc_hd__decap_4
X_343_ _472_/A _340_/A _318_/A _343_/B2 VGND VGND VPWR VPWR _346_/B sky130_fd_sc_hd__a22o_1
X_412_ _418_/B _412_/B VGND VGND VPWR VPWR _419_/A sky130_fd_sc_hd__and2b_1
XFILLER_0_38 VGND VGND VPWR VPWR sky130_fd_sc_hd__decap_4
XFILLER_2_179 VGND VGND VPWR VPWR sky130_fd_sc_hd__decap_4
X_326_ _602_/D input1/X _325_/X VGND VGND VPWR VPWR _326_/X sky130_fd_sc_hd__o21ba_1
X_309_ _309_/A _594_/Q VGND VGND VPWR VPWR _309_/Y sky130_fd_sc_hd__xnor2_1
XFILLER_20_24 VGND VGND VPWR VPWR sky130_fd_sc_hd__decap_4
XFILLER_20_13 VGND VGND VPWR VPWR sky130_fd_sc_hd__decap_8
XFILLER_28_175 VGND VGND VPWR VPWR sky130_fd_sc_hd__fill_1
X_591_ input11/X _591_/D VGND VGND VPWR VPWR _591_/Q sky130_fd_sc_hd__dfxtp_1
XFILLER_6_15 VGND VGND VPWR VPWR sky130_fd_sc_hd__decap_12
XFILLER_25_167 VGND VGND VPWR VPWR sky130_fd_sc_hd__fill_1
XFILLER_25_156 VGND VGND VPWR VPWR sky130_fd_sc_hd__decap_4
Xoutput34 _590_/Q VGND VGND VPWR VPWR corner[1] sky130_fd_sc_hd__buf_2
XTAP_159 VGND VPWR sky130_fd_sc_hd__tapvpwrvgnd_1
XTAP_148 VGND VPWR sky130_fd_sc_hd__tapvpwrvgnd_1
XTAP_137 VGND VPWR sky130_fd_sc_hd__tapvpwrvgnd_1
XTAP_126 VGND VPWR sky130_fd_sc_hd__tapvpwrvgnd_1
X_643_ input11/X _643_/D _587_/Y VGND VGND VPWR VPWR _643_/Q sky130_fd_sc_hd__dfrtp_1
XFILLER_16_167 VGND VGND VPWR VPWR sky130_fd_sc_hd__decap_4
XFILLER_16_156 VGND VGND VPWR VPWR sky130_fd_sc_hd__decap_4
XTAP_115 VGND VPWR sky130_fd_sc_hd__tapvpwrvgnd_1
XTAP_104 VGND VPWR sky130_fd_sc_hd__tapvpwrvgnd_1
XFILLER_11_3 VGND VGND VPWR VPWR sky130_fd_sc_hd__decap_6
X_574_ _574_/A VGND VGND VPWR VPWR _574_/Y sky130_fd_sc_hd__inv_2
XFILLER_22_159 VGND VGND VPWR VPWR sky130_fd_sc_hd__decap_4
X_626_ _624_/Q _626_/D _567_/Y VGND VGND VPWR VPWR _626_/Q sky130_fd_sc_hd__dfrtp_1
X_557_ _588_/A VGND VGND VPWR VPWR _562_/A sky130_fd_sc_hd__clkbuf_2
X_488_ _641_/Q _489_/B VGND VGND VPWR VPWR _492_/C sky130_fd_sc_hd__and2_1
XFILLER_13_159 VGND VGND VPWR VPWR sky130_fd_sc_hd__decap_8
XFILLER_3_38 VGND VGND VPWR VPWR sky130_fd_sc_hd__decap_4
XFILLER_8_130 VGND VGND VPWR VPWR sky130_fd_sc_hd__decap_8
XFILLER_8_141 VGND VGND VPWR VPWR sky130_fd_sc_hd__decap_3
X_342_ _318_/A _343_/B2 _319_/Y _342_/B2 VGND VGND VPWR VPWR _342_/X sky130_fd_sc_hd__o22a_1
XFILLER_12_47 VGND VGND VPWR VPWR sky130_fd_sc_hd__decap_4
X_411_ _411_/A VGND VGND VPWR VPWR _618_/D sky130_fd_sc_hd__clkbuf_1
XFILLER_5_111 VGND VGND VPWR VPWR sky130_fd_sc_hd__fill_1
X_609_ _611_/CLK _609_/D _547_/Y VGND VGND VPWR VPWR _609_/Q sky130_fd_sc_hd__dfrtp_1
XFILLER_4_70 VGND VGND VPWR VPWR sky130_fd_sc_hd__fill_1
X_325_ _325_/A _611_/Q VGND VGND VPWR VPWR _325_/X sky130_fd_sc_hd__or2b_1
XFILLER_18_24 VGND VGND VPWR VPWR sky130_fd_sc_hd__decap_4
X_308_ _595_/Q VGND VGND VPWR VPWR _308_/Y sky130_fd_sc_hd__inv_2
XFILLER_29_45 VGND VGND VPWR VPWR sky130_fd_sc_hd__decap_4
XFILLER_29_34 VGND VGND VPWR VPWR sky130_fd_sc_hd__fill_1
X_590_ input11/X _590_/D VGND VGND VPWR VPWR _590_/Q sky130_fd_sc_hd__dfxtp_1
XFILLER_20_58 VGND VGND VPWR VPWR sky130_fd_sc_hd__decap_4
XFILLER_20_47 VGND VGND VPWR VPWR sky130_fd_sc_hd__decap_4
XFILLER_6_27 VGND VGND VPWR VPWR sky130_fd_sc_hd__fill_1
Xoutput35 _591_/Q VGND VGND VPWR VPWR corner[2] sky130_fd_sc_hd__buf_2
XFILLER_25_124 VGND VGND VPWR VPWR sky130_fd_sc_hd__decap_4
XFILLER_25_113 VGND VGND VPWR VPWR sky130_fd_sc_hd__decap_3
XFILLER_25_102 VGND VGND VPWR VPWR sky130_fd_sc_hd__decap_8
XTAP_149 VGND VPWR sky130_fd_sc_hd__tapvpwrvgnd_1
XTAP_138 VGND VPWR sky130_fd_sc_hd__tapvpwrvgnd_1
XTAP_127 VGND VPWR sky130_fd_sc_hd__tapvpwrvgnd_1
XTAP_116 VGND VPWR sky130_fd_sc_hd__tapvpwrvgnd_1
X_642_ input11/X _642_/D _586_/Y VGND VGND VPWR VPWR _642_/Q sky130_fd_sc_hd__dfrtp_1
XTAP_105 VGND VPWR sky130_fd_sc_hd__tapvpwrvgnd_1
X_573_ _574_/A VGND VGND VPWR VPWR _573_/Y sky130_fd_sc_hd__inv_2
XFILLER_21_160 VGND VGND VPWR VPWR sky130_fd_sc_hd__decap_8
X_625_ _624_/Q _625_/D _566_/Y VGND VGND VPWR VPWR _625_/Q sky130_fd_sc_hd__dfrtp_1
XFILLER_12_182 VGND VGND VPWR VPWR sky130_fd_sc_hd__fill_1
XFILLER_8_164 VGND VGND VPWR VPWR sky130_fd_sc_hd__decap_4
X_556_ _556_/A VGND VGND VPWR VPWR _556_/Y sky130_fd_sc_hd__inv_2
X_487_ _489_/B _487_/B VGND VGND VPWR VPWR _640_/D sky130_fd_sc_hd__nor2_1
X_341_ _319_/Y _342_/B2 _345_/A1 _465_/A VGND VGND VPWR VPWR _346_/A sky130_fd_sc_hd__a22o_1
XFILLER_12_59 VGND VGND VPWR VPWR sky130_fd_sc_hd__decap_4
X_410_ _631_/D _409_/X _437_/B VGND VGND VPWR VPWR _411_/A sky130_fd_sc_hd__mux2_1
X_608_ _611_/CLK _608_/D _546_/Y VGND VGND VPWR VPWR _608_/Q sky130_fd_sc_hd__dfrtp_1
X_539_ _543_/A VGND VGND VPWR VPWR _539_/Y sky130_fd_sc_hd__inv_2
XFILLER_5_156 VGND VGND VPWR VPWR sky130_fd_sc_hd__decap_12
X_324_ _602_/Q VGND VGND VPWR VPWR _602_/D sky130_fd_sc_hd__inv_2
XFILLER_0_29 VGND VGND VPWR VPWR sky130_fd_sc_hd__fill_2
XFILLER_9_16 VGND VGND VPWR VPWR sky130_fd_sc_hd__fill_1
XFILLER_9_27 VGND VGND VPWR VPWR sky130_fd_sc_hd__decap_4
XFILLER_18_58 VGND VGND VPWR VPWR sky130_fd_sc_hd__decap_4
XFILLER_18_47 VGND VGND VPWR VPWR sky130_fd_sc_hd__fill_1
XFILLER_18_36 VGND VGND VPWR VPWR sky130_fd_sc_hd__decap_4
X_307_ _303_/A _503_/A _307_/B1 _297_/Y VGND VGND VPWR VPWR _307_/X sky130_fd_sc_hd__o22a_1
XFILLER_29_57 VGND VGND VPWR VPWR sky130_fd_sc_hd__decap_4
XFILLER_28_144 VGND VGND VPWR VPWR sky130_fd_sc_hd__decap_4
XFILLER_25_169 VGND VGND VPWR VPWR sky130_fd_sc_hd__decap_12
XFILLER_25_136 VGND VGND VPWR VPWR sky130_fd_sc_hd__decap_4
XFILLER_15_15 VGND VGND VPWR VPWR sky130_fd_sc_hd__decap_4
Xoutput36 _623_/Q VGND VGND VPWR VPWR lock sky130_fd_sc_hd__buf_2
XFILLER_16_136 VGND VGND VPWR VPWR sky130_fd_sc_hd__decap_4
X_641_ input11/X _641_/D _585_/Y VGND VGND VPWR VPWR _641_/Q sky130_fd_sc_hd__dfrtp_1
X_572_ _574_/A VGND VGND VPWR VPWR _572_/Y sky130_fd_sc_hd__inv_2
XTAP_139 VGND VPWR sky130_fd_sc_hd__tapvpwrvgnd_1
XFILLER_22_139 VGND VGND VPWR VPWR sky130_fd_sc_hd__fill_1
XTAP_128 VGND VPWR sky130_fd_sc_hd__tapvpwrvgnd_1
XTAP_117 VGND VPWR sky130_fd_sc_hd__tapvpwrvgnd_1
XTAP_106 VGND VPWR sky130_fd_sc_hd__tapvpwrvgnd_1
XPHY_0 VGND VGND VPWR VPWR sky130_fd_sc_hd__decap_3
XFILLER_7_60 VGND VGND VPWR VPWR sky130_fd_sc_hd__decap_4
XFILLER_21_172 VGND VGND VPWR VPWR sky130_fd_sc_hd__decap_4
X_624_ input11/X _624_/D _565_/Y VGND VGND VPWR VPWR _624_/Q sky130_fd_sc_hd__dfrtp_4
XFILLER_16_91 VGND VGND VPWR VPWR sky130_fd_sc_hd__decap_4
XFILLER_16_80 VGND VGND VPWR VPWR sky130_fd_sc_hd__decap_4
XFILLER_12_150 VGND VGND VPWR VPWR sky130_fd_sc_hd__decap_6
X_486_ _639_/Q _485_/C _640_/Q VGND VGND VPWR VPWR _487_/B sky130_fd_sc_hd__a21oi_1
X_555_ _556_/A VGND VGND VPWR VPWR _555_/Y sky130_fd_sc_hd__inv_2
XFILLER_12_38 VGND VGND VPWR VPWR sky130_fd_sc_hd__decap_4
X_607_ _611_/CLK _607_/D _545_/Y VGND VGND VPWR VPWR _607_/Q sky130_fd_sc_hd__dfrtp_1
X_340_ _340_/A _609_/Q VGND VGND VPWR VPWR _340_/X sky130_fd_sc_hd__or2b_1
X_538_ _622_/Q VGND VGND VPWR VPWR _543_/A sky130_fd_sc_hd__buf_2
XFILLER_5_135 VGND VGND VPWR VPWR sky130_fd_sc_hd__decap_4
X_469_ _608_/Q _470_/B VGND VGND VPWR VPWR _473_/C sky130_fd_sc_hd__and2_1
XFILLER_23_48 VGND VGND VPWR VPWR sky130_fd_sc_hd__decap_8
XFILLER_4_94 VGND VGND VPWR VPWR sky130_fd_sc_hd__decap_4
X_323_ _603_/Q VGND VGND VPWR VPWR _323_/Y sky130_fd_sc_hd__inv_2
XFILLER_2_116 VGND VGND VPWR VPWR sky130_fd_sc_hd__decap_4
XFILLER_2_138 VGND VGND VPWR VPWR sky130_fd_sc_hd__fill_2
XFILLER_29_6 VGND VGND VPWR VPWR sky130_fd_sc_hd__decap_12
XFILLER_18_15 VGND VGND VPWR VPWR sky130_fd_sc_hd__decap_4
X_306_ _306_/A VGND VGND VPWR VPWR _306_/Y sky130_fd_sc_hd__inv_2
XFILLER_27_3 VGND VGND VPWR VPWR sky130_fd_sc_hd__decap_12
XFILLER_24_80 VGND VGND VPWR VPWR sky130_fd_sc_hd__decap_4
XFILLER_28_134 VGND VGND VPWR VPWR sky130_fd_sc_hd__decap_6
XFILLER_19_167 VGND VGND VPWR VPWR sky130_fd_sc_hd__fill_1
XFILLER_10_60 VGND VGND VPWR VPWR sky130_fd_sc_hd__decap_4
XFILLER_25_148 VGND VGND VPWR VPWR sky130_fd_sc_hd__decap_4
Xoutput37 _457_/X VGND VGND VPWR VPWR pwm sky130_fd_sc_hd__buf_2
XFILLER_16_115 VGND VGND VPWR VPWR sky130_fd_sc_hd__decap_4
X_640_ input11/X _640_/D _584_/Y VGND VGND VPWR VPWR _640_/Q sky130_fd_sc_hd__dfrtp_1
X_571_ _574_/A VGND VGND VPWR VPWR _571_/Y sky130_fd_sc_hd__inv_2
XTAP_129 VGND VPWR sky130_fd_sc_hd__tapvpwrvgnd_1
XTAP_118 VGND VPWR sky130_fd_sc_hd__tapvpwrvgnd_1
XTAP_107 VGND VPWR sky130_fd_sc_hd__tapvpwrvgnd_1
XPHY_1 VGND VGND VPWR VPWR sky130_fd_sc_hd__decap_3
XFILLER_7_72 VGND VGND VPWR VPWR sky130_fd_sc_hd__fill_1
XFILLER_26_15 VGND VGND VPWR VPWR sky130_fd_sc_hd__decap_12
XFILLER_7_83 VGND VGND VPWR VPWR sky130_fd_sc_hd__decap_4
X_623_ input11/X _623_/D _564_/Y VGND VGND VPWR VPWR _623_/Q sky130_fd_sc_hd__dfrtp_1
X_554_ _556_/A VGND VGND VPWR VPWR _554_/Y sky130_fd_sc_hd__inv_2
X_485_ _640_/Q _639_/Q _485_/C VGND VGND VPWR VPWR _489_/B sky130_fd_sc_hd__and3_1
X_468_ _470_/B _468_/B VGND VGND VPWR VPWR _607_/D sky130_fd_sc_hd__nor2_1
X_606_ _611_/CLK _606_/D _543_/Y VGND VGND VPWR VPWR _606_/Q sky130_fd_sc_hd__dfrtp_1
X_399_ _399_/A VGND VGND VPWR VPWR _621_/D sky130_fd_sc_hd__clkbuf_1
X_537_ _537_/A VGND VGND VPWR VPWR _537_/Y sky130_fd_sc_hd__inv_2
XFILLER_4_40 VGND VGND VPWR VPWR sky130_fd_sc_hd__fill_1
XFILLER_4_62 VGND VGND VPWR VPWR sky130_fd_sc_hd__decap_8
X_322_ _604_/Q VGND VGND VPWR VPWR _322_/Y sky130_fd_sc_hd__inv_2
X_305_ _305_/A1 _296_/Y _300_/Y _599_/Q _304_/X VGND VGND VPWR VPWR _314_/B sky130_fd_sc_hd__o221a_1
XFILLER_20_39 VGND VGND VPWR VPWR sky130_fd_sc_hd__decap_4
XFILLER_1_52 VGND VGND VPWR VPWR sky130_fd_sc_hd__decap_4
XFILLER_28_179 VGND VGND VPWR VPWR sky130_fd_sc_hd__decap_4
XFILLER_28_124 VGND VGND VPWR VPWR sky130_fd_sc_hd__decap_4
XFILLER_19_113 VGND VGND VPWR VPWR sky130_fd_sc_hd__decap_4
XFILLER_19_179 VGND VGND VPWR VPWR sky130_fd_sc_hd__decap_4
X_570_ _574_/A VGND VGND VPWR VPWR _570_/Y sky130_fd_sc_hd__inv_2
XFILLER_30_130 VGND VGND VPWR VPWR sky130_fd_sc_hd__decap_8
Xclkbuf_0_clk clk VGND VGND VPWR VPWR clkbuf_0_clk/X sky130_fd_sc_hd__clkbuf_16
XFILLER_21_82 VGND VGND VPWR VPWR sky130_fd_sc_hd__decap_4
XTAP_119 VGND VPWR sky130_fd_sc_hd__tapvpwrvgnd_1
XTAP_108 VGND VPWR sky130_fd_sc_hd__tapvpwrvgnd_1
XPHY_2 VGND VGND VPWR VPWR sky130_fd_sc_hd__decap_3
XFILLER_26_27 VGND VGND VPWR VPWR sky130_fd_sc_hd__fill_1
XFILLER_13_108 VGND VGND VPWR VPWR sky130_fd_sc_hd__decap_4
X_553_ _556_/A VGND VGND VPWR VPWR _553_/Y sky130_fd_sc_hd__inv_2
XFILLER_16_71 VGND VGND VPWR VPWR sky130_fd_sc_hd__decap_4
X_484_ _639_/Q _485_/C VGND VGND VPWR VPWR _639_/D sky130_fd_sc_hd__xor2_1
X_622_ input11/X _624_/D _562_/Y VGND VGND VPWR VPWR _622_/Q sky130_fd_sc_hd__dfstp_1
XFILLER_8_178 VGND VGND VPWR VPWR sky130_fd_sc_hd__decap_4
X_467_ _606_/Q _466_/C _607_/Q VGND VGND VPWR VPWR _468_/B sky130_fd_sc_hd__a21oi_1
X_605_ _605_/CLK _605_/D _542_/Y VGND VGND VPWR VPWR _605_/Q sky130_fd_sc_hd__dfrtp_1
XFILLER_27_81 VGND VGND VPWR VPWR sky130_fd_sc_hd__decap_8
X_398_ _634_/D _389_/Y _437_/B VGND VGND VPWR VPWR _399_/A sky130_fd_sc_hd__mux2_1
X_536_ _537_/A VGND VGND VPWR VPWR _536_/Y sky130_fd_sc_hd__inv_2
XFILLER_4_85 VGND VGND VPWR VPWR sky130_fd_sc_hd__fill_2
XFILLER_23_28 VGND VGND VPWR VPWR sky130_fd_sc_hd__decap_4
XFILLER_23_17 VGND VGND VPWR VPWR sky130_fd_sc_hd__decap_8
X_321_ _606_/Q VGND VGND VPWR VPWR _465_/A sky130_fd_sc_hd__inv_2
XFILLER_13_94 VGND VGND VPWR VPWR sky130_fd_sc_hd__decap_8
XFILLER_13_83 VGND VGND VPWR VPWR sky130_fd_sc_hd__decap_4
X_519_ _396_/A _519_/B _519_/C VGND VGND VPWR VPWR _524_/S sky130_fd_sc_hd__and3b_1
X_304_ _295_/Y _598_/Q _301_/Y _601_/Q _303_/Y VGND VGND VPWR VPWR _304_/X sky130_fd_sc_hd__o221a_1
XFILLER_1_6 VGND VGND VPWR VPWR sky130_fd_sc_hd__decap_6
XFILLER_20_29 VGND VGND VPWR VPWR sky130_fd_sc_hd__decap_3
XFILLER_29_38 VGND VGND VPWR VPWR sky130_fd_sc_hd__decap_4
XFILLER_19_169 VGND VGND VPWR VPWR sky130_fd_sc_hd__decap_6
XFILLER_19_103 VGND VGND VPWR VPWR sky130_fd_sc_hd__fill_1
XFILLER_24_161 VGND VGND VPWR VPWR sky130_fd_sc_hd__decap_12
XFILLER_21_72 VGND VGND VPWR VPWR sky130_fd_sc_hd__decap_4
XTAP_109 VGND VPWR sky130_fd_sc_hd__tapvpwrvgnd_1
XPHY_3 VGND VGND VPWR VPWR sky130_fd_sc_hd__decap_3
XFILLER_7_52 VGND VGND VPWR VPWR sky130_fd_sc_hd__decap_4
X_552_ _556_/A VGND VGND VPWR VPWR _552_/Y sky130_fd_sc_hd__inv_2
X_621_ input11/X _621_/D _561_/Y VGND VGND VPWR VPWR _634_/D sky130_fd_sc_hd__dfrtp_4
X_483_ _485_/C _483_/B VGND VGND VPWR VPWR _638_/D sky130_fd_sc_hd__nor2_1
XFILLER_5_149 VGND VGND VPWR VPWR sky130_fd_sc_hd__decap_4
X_466_ _607_/Q _606_/Q _466_/C VGND VGND VPWR VPWR _470_/B sky130_fd_sc_hd__and3_1
X_604_ _605_/CLK _604_/D _541_/Y VGND VGND VPWR VPWR _604_/Q sky130_fd_sc_hd__dfrtp_1
X_397_ _415_/A VGND VGND VPWR VPWR _437_/B sky130_fd_sc_hd__clkbuf_2
X_535_ _537_/A VGND VGND VPWR VPWR _535_/Y sky130_fd_sc_hd__inv_2
X_320_ _605_/Q VGND VGND VPWR VPWR _320_/Y sky130_fd_sc_hd__inv_2
XFILLER_1_130 VGND VGND VPWR VPWR sky130_fd_sc_hd__decap_12
X_518_ _581_/A VGND VGND VPWR VPWR _519_/C sky130_fd_sc_hd__inv_2
X_449_ _627_/Q _446_/Y _626_/Q _447_/Y _448_/X VGND VGND VPWR VPWR _449_/X sky130_fd_sc_hd__a221o_1
XFILLER_1_65 VGND VGND VPWR VPWR sky130_fd_sc_hd__decap_4
X_303_ _303_/A _503_/A VGND VGND VPWR VPWR _303_/Y sky130_fd_sc_hd__nand2_1
XFILLER_1_32 VGND VGND VPWR VPWR sky130_fd_sc_hd__decap_4
XFILLER_27_181 VGND VGND VPWR VPWR sky130_fd_sc_hd__fill_2
XFILLER_19_137 VGND VGND VPWR VPWR sky130_fd_sc_hd__decap_4
XFILLER_25_3 VGND VGND VPWR VPWR sky130_fd_sc_hd__decap_12
XFILLER_24_173 VGND VGND VPWR VPWR sky130_fd_sc_hd__decap_3
XFILLER_16_129 VGND VGND VPWR VPWR sky130_fd_sc_hd__decap_4
XFILLER_30_154 VGND VGND VPWR VPWR sky130_fd_sc_hd__decap_12
XFILLER_15_162 VGND VGND VPWR VPWR sky130_fd_sc_hd__decap_6
XPHY_4 VGND VGND VPWR VPWR sky130_fd_sc_hd__decap_3
XFILLER_7_31 VGND VGND VPWR VPWR sky130_fd_sc_hd__fill_2
XFILLER_26_29 VGND VGND VPWR VPWR sky130_fd_sc_hd__decap_12
X_551_ _588_/A VGND VGND VPWR VPWR _556_/A sky130_fd_sc_hd__buf_2
X_620_ input11/X _620_/D _560_/Y VGND VGND VPWR VPWR _633_/D sky130_fd_sc_hd__dfrtp_2
XFILLER_12_176 VGND VGND VPWR VPWR sky130_fd_sc_hd__decap_6
XFILLER_12_121 VGND VGND VPWR VPWR sky130_fd_sc_hd__decap_4
X_482_ _638_/Q _482_/B VGND VGND VPWR VPWR _483_/B sky130_fd_sc_hd__nor2_1
X_465_ _465_/A _466_/C VGND VGND VPWR VPWR _606_/D sky130_fd_sc_hd__xnor2_1
X_603_ _605_/CLK _603_/D _540_/Y VGND VGND VPWR VPWR _603_/Q sky130_fd_sc_hd__dfrtp_1
X_396_ _396_/A _396_/B VGND VGND VPWR VPWR _415_/A sky130_fd_sc_hd__nor2_1
X_534_ _537_/A VGND VGND VPWR VPWR _534_/Y sky130_fd_sc_hd__inv_2
XFILLER_5_128 VGND VGND VPWR VPWR sky130_fd_sc_hd__decap_4
XFILLER_4_54 VGND VGND VPWR VPWR sky130_fd_sc_hd__fill_1
XFILLER_4_76 VGND VGND VPWR VPWR sky130_fd_sc_hd__decap_8
XFILLER_13_52 VGND VGND VPWR VPWR sky130_fd_sc_hd__decap_4
XFILLER_1_142 VGND VGND VPWR VPWR sky130_fd_sc_hd__decap_12
X_517_ _392_/X _394_/Y _517_/S VGND VGND VPWR VPWR _519_/B sky130_fd_sc_hd__mux2_1
X_379_ _632_/D _379_/B VGND VGND VPWR VPWR _406_/A sky130_fd_sc_hd__xor2_1
X_448_ _626_/Q _447_/Y _625_/Q _635_/D VGND VGND VPWR VPWR _448_/X sky130_fd_sc_hd__o211a_1
X_302_ _596_/Q VGND VGND VPWR VPWR _503_/A sky130_fd_sc_hd__inv_2