*SPEF "ieee 1481-1999"
*DESIGN "wrapper"
*DATE "11:11:11 Fri 11 11, 1111"
*VENDOR "OpenRCX"
*PROGRAM "Parallel Extraction"
*VERSION "1.0"
*DESIGN_FLOW "NAME_SCOPE LOCAL" "PIN_CAP NONE"
*DIVIDER /
*DELIMITER :
*BUS_DELIMITER []
*T_UNIT 1 NS
*C_UNIT 1 PF
*R_UNIT 1 OHM
*L_UNIT 1 HENRY

*NAME_MAP
*1 clk_in
*2 corner[0]
*3 corner[1]
*4 corner[2]
*5 dac[0]
*6 dac[1]
*7 dac[2]
*8 dac[3]
*9 dac[4]
*10 dac[5]
*11 dac[6]
*12 dac[7]
*13 net44
*14 net45
*15 load
*16 net46
*17 read
*18 ref_in
*19 reset
*20 s_in
*21 s_out
*22 slope_ctrl[0]
*23 slope_ctrl[1]
*24 slope_ctrl[2]
*25 vbias1[0]
*26 vbias1[1]
*27 vbias1[2]
*28 vbias1[3]
*29 vbias1[4]
*30 vbias1[5]
*31 vbias1[6]
*32 vbias1[7]
*33 vbias2[0]
*34 vbias2[1]
*35 vbias2[2]
*36 vbias2[3]
*37 vbias2[4]
*38 vbias2[5]
*39 vbias2[6]
*40 vbias2[7]
*41 vbias3[0]
*42 vbias3[1]
*43 vbias3[2]
*44 vbias3[3]
*45 vbias3[4]
*46 vbias3[5]
*47 vbias3[6]
*48 vbias3[7]
*49 vco_in
*52 _0000_
*53 _0001_
*54 _0002_
*55 _0003_
*56 _0004_
*57 _0005_
*58 _0006_
*59 _0007_
*60 _0008_
*61 _0009_
*62 _0010_
*63 _0011_
*64 _0012_
*65 _0013_
*66 _0014_
*67 _0015_
*68 _0016_
*69 _0017_
*70 _0018_
*71 _0019_
*72 _0020_
*73 _0021_
*74 _0022_
*75 _0023_
*76 _0024_
*77 _0025_
*78 _0026_
*79 _0027_
*80 _0028_
*81 _0029_
*82 _0030_
*83 _0031_
*84 _0032_
*85 _0033_
*86 _0034_
*87 _0035_
*88 _0036_
*89 _0037_
*90 _0038_
*91 _0039_
*92 _0040_
*93 _0041_
*94 _0042_
*95 _0043_
*96 _0044_
*97 _0045_
*98 _0046_
*99 _0047_
*100 _0048_
*101 _0049_
*102 _0050_
*103 _0051_
*104 _0052_
*105 _0053_
*106 _0054_
*107 _0055_
*108 _0056_
*109 _0057_
*110 _0058_
*111 _0059_
*112 _0060_
*113 _0061_
*114 _0062_
*115 _0063_
*116 _0064_
*117 _0065_
*118 _0066_
*119 _0067_
*120 _0068_
*121 _0069_
*122 _0070_
*123 _0071_
*124 _0072_
*125 _0073_
*126 _0074_
*127 _0075_
*128 _0076_
*129 _0077_
*130 _0078_
*131 _0079_
*132 _0080_
*133 _0081_
*134 _0082_
*135 _0083_
*136 _0084_
*137 _0085_
*138 _0086_
*139 _0087_
*140 _0088_
*141 _0089_
*142 _0090_
*143 _0091_
*144 _0092_
*145 _0093_
*146 _0094_
*147 _0095_
*148 _0096_
*149 _0097_
*150 _0098_
*151 _0099_
*152 _0100_
*153 _0101_
*154 _0102_
*155 _0103_
*156 _0104_
*157 _0105_
*158 _0106_
*159 _0107_
*160 _0108_
*161 _0109_
*162 _0110_
*163 _0111_
*164 _0112_
*165 _0113_
*166 _0114_
*167 _0115_
*168 _0116_
*169 _0117_
*170 _0118_
*171 _0119_
*172 _0120_
*173 _0121_
*174 _0122_
*175 _0123_
*176 _0124_
*177 _0125_
*178 _0126_
*179 _0127_
*180 _0128_
*181 _0129_
*182 _0130_
*183 _0131_
*184 _0132_
*185 _0133_
*186 _0134_
*187 _0135_
*188 _0136_
*189 _0137_
*190 _0138_
*191 _0139_
*192 _0140_
*193 _0141_
*194 _0142_
*195 _0143_
*196 _0144_
*197 _0145_
*198 _0146_
*199 _0147_
*200 _0148_
*201 _0149_
*202 _0150_
*203 _0151_
*204 _0152_
*205 _0153_
*206 _0154_
*207 _0155_
*208 _0156_
*209 _0157_
*210 _0158_
*211 _0159_
*212 _0160_
*213 _0161_
*214 _0162_
*215 _0163_
*216 _0164_
*217 _0165_
*218 _0166_
*219 _0167_
*220 _0168_
*221 _0169_
*222 _0170_
*223 _0171_
*224 _0172_
*225 _0173_
*226 _0174_
*227 _0175_
*228 _0176_
*229 _0177_
*230 _0178_
*231 _0179_
*232 _0180_
*233 _0181_
*234 _0182_
*235 _0183_
*236 _0184_
*237 _0185_
*238 _0186_
*239 _0187_
*240 _0188_
*241 _0189_
*242 _0190_
*243 _0191_
*244 _0192_
*245 _0193_
*246 _0194_
*247 _0195_
*248 _0196_
*249 _0197_
*250 _0198_
*251 _0199_
*252 _0200_
*253 _0201_
*254 _0202_
*255 _0203_
*256 _0204_
*257 _0205_
*258 _0206_
*259 _0207_
*260 _0208_
*261 _0209_
*262 _0210_
*263 _0211_
*264 _0212_
*265 _0213_
*266 _0214_
*267 _0215_
*268 _0216_
*269 _0217_
*270 _0218_
*271 _0219_
*272 _0220_
*273 _0221_
*274 _0222_
*275 _0223_
*276 _0224_
*277 _0225_
*278 _0226_
*279 _0227_
*280 _0228_
*281 _0229_
*282 _0230_
*283 _0231_
*284 _0232_
*285 _0233_
*286 _0234_
*287 _0235_
*288 _0236_
*289 _0237_
*290 _0238_
*291 _0239_
*292 _0240_
*293 _0241_
*294 _0242_
*295 _0243_
*296 _0244_
*297 _0245_
*298 _0246_
*299 _0247_
*300 _0248_
*301 _0249_
*302 _0250_
*303 _0251_
*304 _0252_
*305 _0253_
*306 _0254_
*307 _0255_
*308 _0256_
*309 _0257_
*310 _0258_
*311 _0259_
*312 _0260_
*313 _0261_
*314 _0262_
*315 _0263_
*316 _0264_
*317 _0265_
*318 _0266_
*319 _0267_
*320 _0268_
*321 _0269_
*322 _0270_
*323 _0271_
*324 _0272_
*325 _0273_
*326 _0274_
*327 _0275_
*328 _0276_
*329 _0277_
*330 _0278_
*331 _0279_
*332 _0280_
*333 _0281_
*334 _0282_
*335 _0283_
*336 _0284_
*337 _0285_
*338 _0286_
*339 _0287_
*340 _0288_
*341 _0289_
*342 _0290_
*343 _0291_
*344 _0292_
*345 _0293_
*346 _0294_
*347 _0295_
*348 _0296_
*349 _0297_
*350 _0298_
*351 _0299_
*352 _0300_
*353 _0301_
*354 _0302_
*355 _0303_
*356 _0304_
*357 _0305_
*358 _0306_
*359 _0307_
*360 _0308_
*361 _0309_
*362 _0310_
*363 _0311_
*364 _0312_
*365 _0313_
*366 _0314_
*367 _0315_
*368 _0316_
*369 _0317_
*370 _0318_
*371 _0319_
*372 _0320_
*373 _0321_
*374 _0322_
*375 _0323_
*376 _0324_
*377 _0325_
*378 _0326_
*379 _0327_
*380 _0328_
*381 _0329_
*382 _0330_
*383 _0331_
*384 _0332_
*385 _0333_
*386 _0334_
*387 _0335_
*388 _0336_
*389 _0337_
*390 _0338_
*391 _0339_
*392 _0340_
*393 _0341_
*394 _0342_
*395 _0343_
*396 _0344_
*397 _0345_
*398 _0346_
*399 _0347_
*400 _0348_
*401 _0349_
*402 _0350_
*403 _0351_
*404 _0352_
*405 _0353_
*406 _0354_
*407 _0355_
*408 _0356_
*409 _0357_
*410 _0358_
*411 _0359_
*412 _0360_
*413 _0361_
*414 _0362_
*415 _0363_
*416 _0364_
*417 _0365_
*418 _0366_
*419 _0367_
*420 _0368_
*421 _0369_
*422 _0370_
*423 _0371_
*424 _0372_
*425 _0373_
*426 _0374_
*427 _0375_
*428 _0376_
*429 _0377_
*430 _0378_
*431 _0379_
*432 _0380_
*433 _0381_
*434 _0382_
*435 _0383_
*436 _0384_
*437 _0385_
*438 _0386_
*439 _0387_
*440 _0388_
*441 _0389_
*442 _0390_
*443 _0391_
*444 _0392_
*445 _0393_
*446 _0394_
*447 _0395_
*448 _0396_
*449 _0397_
*450 _0398_
*451 _0399_
*452 _0400_
*453 _0401_
*454 _0402_
*455 _0403_
*456 _0404_
*457 _0405_
*458 _0406_
*459 _0407_
*460 _0408_
*461 _0409_
*462 _0410_
*463 _0411_
*464 _0412_
*465 _0413_
*466 _0414_
*467 _0415_
*468 _0416_
*469 _0417_
*470 _0418_
*471 _0419_
*472 _0420_
*473 _0421_
*474 _0422_
*475 _0423_
*476 _0424_
*477 _0425_
*478 _0426_
*479 _0427_
*480 _0428_
*481 _0429_
*482 _0430_
*483 _0431_
*484 _0432_
*485 _0433_
*486 _0434_
*487 _0435_
*488 _0436_
*489 _0437_
*490 _0438_
*491 _0439_
*492 _0440_
*493 _0441_
*494 _0442_
*495 _0443_
*496 _0444_
*497 _0445_
*498 _0446_
*499 _0447_
*500 _0448_
*501 _0449_
*502 _0450_
*503 _0451_
*504 _0452_
*505 _0453_
*506 _0454_
*507 _0455_
*508 _0456_
*509 _0457_
*510 _0458_
*511 _0459_
*512 _0460_
*513 _0461_
*514 _0462_
*515 _0463_
*516 _0464_
*517 _0465_
*518 _0466_
*519 _0467_
*520 _0468_
*521 _0469_
*522 _0470_
*523 _0471_
*524 _0472_
*525 _0473_
*526 _0474_
*527 _0475_
*528 _0476_
*529 _0477_
*530 _0478_
*531 _0479_
*532 _0480_
*533 _0481_
*534 _0482_
*535 _0483_
*536 _0484_
*537 _0485_
*538 _0486_
*539 _0487_
*540 _0488_
*541 _0489_
*542 _0490_
*543 _0491_
*544 _0492_
*545 _0493_
*546 _0494_
*547 _0495_
*548 _0496_
*549 _0497_
*550 _0498_
*551 _0499_
*552 _0500_
*553 _0501_
*554 _0502_
*555 _0503_
*556 _0504_
*557 _0505_
*558 _0506_
*559 _0507_
*560 _0508_
*561 _0509_
*562 _0510_
*563 _0511_
*564 _0512_
*565 _0513_
*566 _0514_
*567 _0515_
*568 _0516_
*569 _0517_
*570 _0518_
*571 _0519_
*572 _0520_
*573 _0521_
*574 _0522_
*575 _0523_
*576 _0524_
*577 _0525_
*578 _0526_
*579 _0527_
*580 _0528_
*581 _0529_
*582 _0530_
*583 _0531_
*584 _0532_
*585 _0533_
*586 _0534_
*587 _0535_
*588 _0536_
*589 _0537_
*590 _0538_
*591 _0539_
*592 _0540_
*593 _0541_
*594 _0542_
*595 _0543_
*596 _0544_
*597 _0545_
*598 _0546_
*599 _0547_
*600 _0548_
*601 _0549_
*602 _0550_
*603 _0551_
*604 _0552_
*605 _0553_
*606 _0554_
*607 _0555_
*608 _0556_
*609 _0557_
*610 _0558_
*611 _0559_
*612 _0560_
*613 _0561_
*614 _0562_
*615 _0563_
*616 _0564_
*617 _0565_
*618 _0566_
*619 _0567_
*620 _0568_
*621 _0569_
*622 _0570_
*623 _0571_
*624 _0572_
*625 _0573_
*626 _0574_
*627 _0575_
*628 _0576_
*629 _0577_
*630 _0578_
*631 _0579_
*632 _0580_
*633 _0581_
*634 _0582_
*635 _0583_
*636 _0584_
*637 _0585_
*638 _0586_
*639 _0587_
*640 _0588_
*641 _0589_
*642 _0590_
*643 _0591_
*644 _0592_
*645 _0593_
*646 _0594_
*647 _0595_
*648 _0596_
*649 _0597_
*650 _0598_
*651 _0599_
*652 _0600_
*653 _0601_
*654 _0602_
*655 _0603_
*656 _0604_
*657 _0605_
*658 _0606_
*659 _0607_
*660 _0608_
*661 _0609_
*662 _0610_
*663 _0611_
*664 _0612_
*665 _0613_
*666 _0614_
*667 _0615_
*668 _0616_
*669 _0617_
*670 _0618_
*671 _0619_
*672 _0620_
*673 _0621_
*674 _0622_
*675 _0623_
*676 _0624_
*677 _0625_
*678 _0626_
*679 _0627_
*680 _0628_
*681 _0629_
*682 _0630_
*683 _0631_
*684 _0632_
*685 _0633_
*686 _0634_
*687 _0635_
*688 _0636_
*689 _0637_
*690 _0638_
*691 _0639_
*692 _0640_
*693 _0641_
*694 _0642_
*695 _0643_
*696 _0644_
*697 _0645_
*698 _0646_
*699 _0647_
*700 _0648_
*701 _0649_
*702 _0650_
*703 _0651_
*704 _0652_
*705 _0653_
*706 _0654_
*707 _0655_
*708 _0656_
*709 _0657_
*710 _0658_
*711 _0659_
*712 _0660_
*713 _0661_
*714 _0662_
*715 _0663_
*716 _0664_
*717 _0665_
*718 _0666_
*719 _0667_
*720 _0668_
*721 _0669_
*722 _0670_
*723 _0671_
*724 _0672_
*725 _0673_
*726 _0674_
*727 _0675_
*728 _0676_
*729 _0677_
*730 _0678_
*731 _0679_
*732 _0680_
*733 _0681_
*734 _0682_
*735 _0683_
*736 _0684_
*737 _0685_
*738 _0686_
*739 _0687_
*740 _0688_
*741 _0689_
*742 _0690_
*743 _0691_
*744 _0692_
*745 _0693_
*746 _0694_
*747 _0695_
*748 _0696_
*749 _0697_
*750 _0698_
*751 _0699_
*752 _0700_
*753 _0701_
*754 _0702_
*755 _0703_
*756 _0704_
*757 _0705_
*758 _0706_
*759 _0707_
*760 _0708_
*761 _0709_
*762 _0710_
*763 _0711_
*764 _0712_
*765 _0713_
*766 _0714_
*767 _0715_
*768 _0716_
*769 _0717_
*770 _0718_
*771 _0719_
*772 _0720_
*773 _0721_
*774 _0722_
*775 _0723_
*776 _0724_
*777 _0725_
*778 _0726_
*779 _0727_
*780 _0728_
*781 _0729_
*782 _0730_
*783 _0731_
*784 _0732_
*785 _0733_
*786 _0734_
*787 _0735_
*788 _0736_
*789 _0737_
*790 _0738_
*791 _0739_
*792 _0740_
*793 _0741_
*794 _0742_
*795 _0743_
*796 _0744_
*797 _0745_
*798 _0746_
*799 _0747_
*800 _0748_
*801 _0749_
*802 _0750_
*803 _0751_
*804 _0752_
*805 _0753_
*806 _0754_
*807 _0755_
*808 _0756_
*809 _0757_
*810 _0758_
*811 _0759_
*812 _0760_
*813 _0761_
*814 _0762_
*815 _0763_
*816 _0764_
*817 _0765_
*818 _0766_
*819 _0767_
*820 _0768_
*821 _0769_
*822 _0770_
*823 _0771_
*824 _0772_
*825 _0773_
*826 _0774_
*827 _0775_
*828 _0776_
*829 _0777_
*830 _0778_
*831 _0779_
*832 _0780_
*833 _0781_
*834 _0782_
*835 _0783_
*836 _0784_
*837 _0785_
*838 _0786_
*839 _0787_
*840 _0788_
*841 _0789_
*842 _0790_
*843 _0791_
*844 _0792_
*845 _0793_
*846 _0794_
*847 _0795_
*848 _0796_
*849 _0797_
*850 _0798_
*851 _0799_
*852 _0800_
*853 _0801_
*854 _0802_
*855 _0803_
*856 _0804_
*857 _0805_
*858 _0806_
*859 _0807_
*860 _0808_
*861 _0809_
*862 _0810_
*863 _0811_
*864 _0812_
*865 _0813_
*866 _0814_
*867 _0815_
*868 _0816_
*869 _0817_
*870 _0818_
*871 _0819_
*872 _0820_
*873 _0821_
*874 _0822_
*875 _0823_
*876 _0824_
*877 _0825_
*878 _0826_
*879 _0827_
*880 _0828_
*881 _0829_
*882 _0830_
*883 _0831_
*884 _0832_
*885 _0833_
*886 _0834_
*887 _0835_
*888 _0836_
*889 _0837_
*890 _0838_
*891 _0839_
*892 _0840_
*893 _0841_
*894 _0842_
*895 _0843_
*896 _0844_
*897 _0845_
*898 _0846_
*899 _0847_
*900 _0848_
*901 _0849_
*902 _0850_
*903 _0851_
*904 _0852_
*905 _0853_
*906 _0854_
*907 _0855_
*908 _0856_
*909 _0857_
*910 _0858_
*911 _0859_
*912 _0860_
*913 _0861_
*914 _0862_
*915 _0863_
*916 _0864_
*917 _0865_
*918 _0866_
*919 _0867_
*920 _0868_
*921 _0869_
*922 _0870_
*923 _0871_
*924 _0872_
*925 _0873_
*926 _0874_
*927 _0875_
*928 _0876_
*929 _0877_
*930 _0878_
*931 _0879_
*932 _0880_
*933 _0881_
*934 _0882_
*935 _0883_
*936 _0884_
*937 _0885_
*938 _0886_
*939 _0887_
*940 _0888_
*941 _0889_
*942 _0890_
*943 _0891_
*944 _0892_
*945 _0893_
*946 _0894_
*947 _0895_
*948 _0896_
*949 _0897_
*950 _0898_
*951 _0899_
*952 _0900_
*953 _0901_
*954 _0902_
*955 _0903_
*956 _0904_
*957 _0905_
*958 _0906_
*959 _0907_
*960 _0908_
*961 _0909_
*962 _0910_
*963 _0911_
*964 _0912_
*965 _0913_
*966 _0914_
*967 _0915_
*968 _0916_
*969 _0917_
*970 _0918_
*971 _0919_
*972 _0920_
*973 _0921_
*974 _0922_
*975 _0923_
*976 _0924_
*977 _0925_
*978 _0926_
*979 _0927_
*980 _0928_
*981 _0929_
*982 _0930_
*983 _0931_
*984 _0932_
*985 _0933_
*986 _0934_
*987 _0935_
*988 _0936_
*989 _0937_
*990 _0938_
*991 _0939_
*992 _0940_
*993 _0941_
*994 _0942_
*995 _0943_
*996 _0944_
*997 _0945_
*998 _0946_
*999 _0947_
*1000 _0948_
*1001 _0949_
*1002 _0950_
*1003 _0951_
*1004 _0952_
*1005 _0953_
*1006 _0954_
*1007 _0955_
*1008 _0956_
*1009 _0957_
*1010 _0958_
*1011 _0959_
*1012 _0960_
*1013 _0961_
*1014 _0962_
*1015 _0963_
*1016 _0964_
*1017 _0965_
*1018 _0966_
*1019 _0967_
*1020 _0968_
*1021 _0969_
*1022 _0970_
*1023 _0971_
*1024 _0972_
*1025 _0973_
*1026 _0974_
*1027 _0975_
*1028 _0976_
*1029 _0977_
*1030 _0978_
*1031 _0979_
*1032 _0980_
*1033 _0981_
*1034 _0982_
*1035 _0983_
*1036 _0984_
*1037 _0985_
*1038 _0986_
*1039 _0987_
*1040 _0988_
*1041 _0989_
*1042 _0990_
*1043 _0991_
*1044 clknet_0_clk_in
*1045 clknet_0_ref_in
*1046 clknet_0_vco_in
*1047 clknet_1_0__leaf_ref_in
*1048 clknet_1_0__leaf_vco_in
*1049 clknet_1_1__leaf_ref_in
*1050 clknet_1_1__leaf_vco_in
*1051 clknet_4_0_0_clk_in
*1052 clknet_4_10_0_clk_in
*1053 clknet_4_11_0_clk_in
*1054 clknet_4_12_0_clk_in
*1055 clknet_4_13_0_clk_in
*1056 clknet_4_14_0_clk_in
*1057 clknet_4_15_0_clk_in
*1058 clknet_4_1_0_clk_in
*1059 clknet_4_2_0_clk_in
*1060 clknet_4_3_0_clk_in
*1061 clknet_4_4_0_clk_in
*1062 clknet_4_5_0_clk_in
*1063 clknet_4_6_0_clk_in
*1064 clknet_4_7_0_clk_in
*1065 clknet_4_8_0_clk_in
*1066 clknet_4_9_0_clk_in
*1067 d2\.r_reg\[10\]
*1068 d2\.r_reg\[11\]
*1069 d2\.r_reg\[12\]
*1070 d2\.r_reg\[13\]
*1071 d2\.r_reg\[14\]
*1072 d2\.r_reg\[15\]
*1073 d2\.r_reg\[16\]
*1074 d2\.r_reg\[17\]
*1075 d2\.r_reg\[18\]
*1076 d2\.r_reg\[19\]
*1077 d2\.r_reg\[1\]
*1078 d2\.r_reg\[20\]
*1079 d2\.r_reg\[21\]
*1080 d2\.r_reg\[22\]
*1081 d2\.r_reg\[23\]
*1082 d2\.r_reg\[24\]
*1083 d2\.r_reg\[25\]
*1084 d2\.r_reg\[26\]
*1085 d2\.r_reg\[27\]
*1086 d2\.r_reg\[28\]
*1087 d2\.r_reg\[29\]
*1088 d2\.r_reg\[2\]
*1089 d2\.r_reg\[30\]
*1090 d2\.r_reg\[31\]
*1091 d2\.r_reg\[32\]
*1092 d2\.r_reg\[33\]
*1093 d2\.r_reg\[34\]
*1094 d2\.r_reg\[35\]
*1095 d2\.r_reg\[36\]
*1096 d2\.r_reg\[37\]
*1097 d2\.r_reg\[38\]
*1098 d2\.r_reg\[39\]
*1099 d2\.r_reg\[3\]
*1100 d2\.r_reg\[40\]
*1101 d2\.r_reg\[41\]
*1102 d2\.r_reg\[42\]
*1103 d2\.r_reg\[43\]
*1104 d2\.r_reg\[44\]
*1105 d2\.r_reg\[45\]
*1106 d2\.r_reg\[46\]
*1107 d2\.r_reg\[47\]
*1108 d2\.r_reg\[48\]
*1109 d2\.r_reg\[49\]
*1110 d2\.r_reg\[4\]
*1111 d2\.r_reg\[50\]
*1112 d2\.r_reg\[51\]
*1113 d2\.r_reg\[52\]
*1114 d2\.r_reg\[53\]
*1115 d2\.r_reg\[54\]
*1116 d2\.r_reg\[55\]
*1117 d2\.r_reg\[56\]
*1118 d2\.r_reg\[57\]
*1119 d2\.r_reg\[58\]
*1120 d2\.r_reg\[59\]
*1121 d2\.r_reg\[5\]
*1122 d2\.r_reg\[60\]
*1123 d2\.r_reg\[61\]
*1124 d2\.r_reg\[62\]
*1125 d2\.r_reg\[63\]
*1126 d2\.r_reg\[64\]
*1127 d2\.r_reg\[65\]
*1128 d2\.r_reg\[66\]
*1129 d2\.r_reg\[67\]
*1130 d2\.r_reg\[68\]
*1131 d2\.r_reg\[69\]
*1132 d2\.r_reg\[6\]
*1133 d2\.r_reg\[70\]
*1134 d2\.r_reg\[71\]
*1135 d2\.r_reg\[72\]
*1136 d2\.r_reg\[73\]
*1137 d2\.r_reg\[74\]
*1138 d2\.r_reg\[75\]
*1139 d2\.r_reg\[76\]
*1140 d2\.r_reg\[77\]
*1141 d2\.r_reg\[78\]
*1142 d2\.r_reg\[79\]
*1143 d2\.r_reg\[7\]
*1144 d2\.r_reg\[80\]
*1145 d2\.r_reg\[81\]
*1146 d2\.r_reg\[82\]
*1147 d2\.r_reg\[83\]
*1148 d2\.r_reg\[84\]
*1149 d2\.r_reg\[85\]
*1150 d2\.r_reg\[86\]
*1151 d2\.r_reg\[87\]
*1152 d2\.r_reg\[88\]
*1153 d2\.r_reg\[89\]
*1154 d2\.r_reg\[8\]
*1155 d2\.r_reg\[90\]
*1156 d2\.r_reg\[91\]
*1157 d2\.r_reg\[92\]
*1158 d2\.r_reg\[93\]
*1159 d2\.r_reg\[94\]
*1160 d2\.r_reg\[95\]
*1161 d2\.r_reg\[9\]
*1162 d2\.t_load\[0\]
*1163 d2\.t_load\[10\]
*1164 d2\.t_load\[11\]
*1165 d2\.t_load\[12\]
*1166 d2\.t_load\[13\]
*1167 d2\.t_load\[14\]
*1168 d2\.t_load\[15\]
*1169 d2\.t_load\[16\]
*1170 d2\.t_load\[17\]
*1171 d2\.t_load\[18\]
*1172 d2\.t_load\[19\]
*1173 d2\.t_load\[1\]
*1174 d2\.t_load\[20\]
*1175 d2\.t_load\[21\]
*1176 d2\.t_load\[22\]
*1177 d2\.t_load\[23\]
*1178 d2\.t_load\[24\]
*1179 d2\.t_load\[25\]
*1180 d2\.t_load\[26\]
*1181 d2\.t_load\[27\]
*1182 d2\.t_load\[28\]
*1183 d2\.t_load\[29\]
*1184 d2\.t_load\[2\]
*1185 d2\.t_load\[30\]
*1186 d2\.t_load\[31\]
*1187 d2\.t_load\[32\]
*1188 d2\.t_load\[33\]
*1189 d2\.t_load\[34\]
*1190 d2\.t_load\[35\]
*1191 d2\.t_load\[36\]
*1192 d2\.t_load\[37\]
*1193 d2\.t_load\[38\]
*1194 d2\.t_load\[39\]
*1195 d2\.t_load\[3\]
*1196 d2\.t_load\[40\]
*1197 d2\.t_load\[41\]
*1198 d2\.t_load\[42\]
*1199 d2\.t_load\[43\]
*1200 d2\.t_load\[44\]
*1201 d2\.t_load\[45\]
*1202 d2\.t_load\[46\]
*1203 d2\.t_load\[47\]
*1204 d2\.t_load\[48\]
*1205 d2\.t_load\[49\]
*1206 d2\.t_load\[4\]
*1207 d2\.t_load\[50\]
*1208 d2\.t_load\[51\]
*1209 d2\.t_load\[52\]
*1210 d2\.t_load\[53\]
*1211 d2\.t_load\[54\]
*1212 d2\.t_load\[55\]
*1213 d2\.t_load\[56\]
*1214 d2\.t_load\[57\]
*1215 d2\.t_load\[58\]
*1216 d2\.t_load\[59\]
*1217 d2\.t_load\[5\]
*1218 d2\.t_load\[60\]
*1219 d2\.t_load\[61\]
*1220 d2\.t_load\[62\]
*1221 d2\.t_load\[63\]
*1222 d2\.t_load\[64\]
*1223 d2\.t_load\[65\]
*1224 d2\.t_load\[6\]
*1225 d2\.t_load\[7\]
*1226 d2\.t_load\[8\]
*1227 d2\.t_load\[93\]
*1228 d2\.t_load\[94\]
*1229 d2\.t_load\[95\]
*1230 d2\.t_load\[9\]
*1231 d5\.fll_core\.corner_tmp\[0\]
*1232 d5\.fll_core\.corner_tmp\[1\]
*1233 d5\.fll_core\.corner_tmp\[2\]
*1234 d5\.fll_core\.counter1\.count\[0\]
*1235 d5\.fll_core\.counter1\.count\[1\]
*1236 d5\.fll_core\.counter1\.count\[2\]
*1237 d5\.fll_core\.counter1\.count\[3\]
*1238 d5\.fll_core\.counter1\.count\[4\]
*1239 d5\.fll_core\.counter1\.count\[5\]
*1240 d5\.fll_core\.counter1\.count\[6\]
*1241 d5\.fll_core\.counter1\.count\[7\]
*1242 d5\.fll_core\.counter1\.count\[8\]
*1243 d5\.fll_core\.counter1\.count\[9\]
*1244 d5\.fll_core\.counter2\.count\[0\]
*1245 d5\.fll_core\.counter2\.count\[1\]
*1246 d5\.fll_core\.counter2\.count\[2\]
*1247 d5\.fll_core\.counter2\.count\[3\]
*1248 d5\.fll_core\.counter2\.count\[4\]
*1249 d5\.fll_core\.counter2\.count\[5\]
*1250 d5\.fll_core\.counter2\.count\[6\]
*1251 d5\.fll_core\.counter2\.count\[7\]
*1252 d5\.fll_core\.counter2\.count\[8\]
*1253 d5\.fll_core\.counter2\.count\[9\]
*1254 d5\.fll_core\.counter_reset
*1255 d5\.fll_core\.strobe
*1256 d5\.fll_core\.tmp\[0\]
*1257 d5\.fll_core\.tmp\[1\]
*1258 d5\.fll_core\.tmp\[2\]
*1259 d5\.fll_core\.tmp\[3\]
*1260 d5\.fll_core\.tmp\[4\]
*1261 d5\.fll_core\.tmp\[5\]
*1262 d5\.fll_core\.tmp\[6\]
*1263 d5\.fll_core\.tmp\[7\]
*1264 d5\.fll_core\.tmp\[8\]
*1265 d5\.fll_core\.tmp\[9\]
*1266 d5\.mux01\.out\[0\]
*1267 d5\.mux01\.out\[1\]
*1268 d5\.mux01\.out\[2\]
*1269 d5\.mux01\.out\[3\]
*1270 d5\.mux01\.out\[4\]
*1271 d5\.mux01\.out\[5\]
*1272 d5\.mux01\.out\[6\]
*1273 d5\.mux01\.out\[7\]
*1274 d5\.mux01\.out\[8\]
*1275 d5\.mux01\.out\[9\]
*1276 net1
*1277 net10
*1278 net11
*1279 net12
*1280 net13
*1281 net14
*1282 net15
*1283 net16
*1284 net17
*1285 net18
*1286 net19
*1287 net2
*1288 net20
*1289 net21
*1290 net22
*1291 net23
*1292 net24
*1293 net25
*1294 net26
*1295 net27
*1296 net28
*1297 net29
*1298 net3
*1299 net30
*1300 net31
*1301 net32
*1302 net33
*1303 net34
*1304 net35
*1305 net36
*1306 net37
*1307 net38
*1308 net39
*1309 net4
*1310 net40
*1311 net41
*1312 net42
*1313 net43
*1314 net5
*1315 net6
*1316 net7
*1317 net8
*1318 net9
*1319 FILLER_0_103
*1320 FILLER_0_110
*1321 FILLER_0_113
*1322 FILLER_0_135
*1323 FILLER_0_139
*1324 FILLER_0_141
*1325 FILLER_0_152
*1326 FILLER_0_159
*1327 FILLER_0_166
*1328 FILLER_0_169
*1329 FILLER_0_186
*1330 FILLER_0_193
*1331 FILLER_0_197
*1332 FILLER_0_20
*1333 FILLER_0_202
*1334 FILLER_0_215
*1335 FILLER_0_222
*1336 FILLER_0_225
*1337 FILLER_0_230
*1338 FILLER_0_245
*1339 FILLER_0_251
*1340 FILLER_0_253
*1341 FILLER_0_258
*1342 FILLER_0_265
*1343 FILLER_0_277
*1344 FILLER_0_281
*1345 FILLER_0_29
*1346 FILLER_0_293
*1347 FILLER_0_3
*1348 FILLER_0_305
*1349 FILLER_0_309
*1350 FILLER_0_317
*1351 FILLER_0_329
*1352 FILLER_0_33
*1353 FILLER_0_335
*1354 FILLER_0_337
*1355 FILLER_0_349
*1356 FILLER_0_361
*1357 FILLER_0_365
*1358 FILLER_0_37
*1359 FILLER_0_370
*1360 FILLER_0_382
*1361 FILLER_0_386
*1362 FILLER_0_390
*1363 FILLER_0_393
*1364 FILLER_0_49
*1365 FILLER_0_55
*1366 FILLER_0_57
*1367 FILLER_0_63
*1368 FILLER_0_67
*1369 FILLER_0_79
*1370 FILLER_0_8
*1371 FILLER_0_83
*1372 FILLER_0_85
*1373 FILLER_0_96
*1374 FILLER_10_102
*1375 FILLER_10_106
*1376 FILLER_10_118
*1377 FILLER_10_126
*1378 FILLER_10_138
*1379 FILLER_10_141
*1380 FILLER_10_146
*1381 FILLER_10_15
*1382 FILLER_10_161
*1383 FILLER_10_168
*1384 FILLER_10_174
*1385 FILLER_10_178
*1386 FILLER_10_190
*1387 FILLER_10_197
*1388 FILLER_10_209
*1389 FILLER_10_221
*1390 FILLER_10_233
*1391 FILLER_10_245
*1392 FILLER_10_251
*1393 FILLER_10_253
*1394 FILLER_10_261
*1395 FILLER_10_266
*1396 FILLER_10_27
*1397 FILLER_10_278
*1398 FILLER_10_282
*1399 FILLER_10_286
*1400 FILLER_10_29
*1401 FILLER_10_294
*1402 FILLER_10_3
*1403 FILLER_10_305
*1404 FILLER_10_309
*1405 FILLER_10_320
*1406 FILLER_10_324
*1407 FILLER_10_345
*1408 FILLER_10_358
*1409 FILLER_10_365
*1410 FILLER_10_370
*1411 FILLER_10_382
*1412 FILLER_10_41
*1413 FILLER_10_53
*1414 FILLER_10_70
*1415 FILLER_10_77
*1416 FILLER_10_83
*1417 FILLER_10_85
*1418 FILLER_10_90
*1419 FILLER_11_110
*1420 FILLER_11_113
*1421 FILLER_11_117
*1422 FILLER_11_121
*1423 FILLER_11_133
*1424 FILLER_11_137
*1425 FILLER_11_15
*1426 FILLER_11_150
*1427 FILLER_11_165
*1428 FILLER_11_169
*1429 FILLER_11_191
*1430 FILLER_11_203
*1431 FILLER_11_215
*1432 FILLER_11_223
*1433 FILLER_11_225
*1434 FILLER_11_237
*1435 FILLER_11_249
*1436 FILLER_11_257
*1437 FILLER_11_27
*1438 FILLER_11_271
*1439 FILLER_11_278
*1440 FILLER_11_281
*1441 FILLER_11_296
*1442 FILLER_11_3
*1443 FILLER_11_320
*1444 FILLER_11_327
*1445 FILLER_11_334
*1446 FILLER_11_337
*1447 FILLER_11_348
*1448 FILLER_11_361
*1449 FILLER_11_368
*1450 FILLER_11_380
*1451 FILLER_11_39
*1452 FILLER_11_393
*1453 FILLER_11_54
*1454 FILLER_11_57
*1455 FILLER_11_79
*1456 FILLER_11_87
*1457 FILLER_12_100
*1458 FILLER_12_107
*1459 FILLER_12_114
*1460 FILLER_12_118
*1461 FILLER_12_128
*1462 FILLER_12_134
*1463 FILLER_12_138
*1464 FILLER_12_141
*1465 FILLER_12_15
*1466 FILLER_12_163
*1467 FILLER_12_175
*1468 FILLER_12_187
*1469 FILLER_12_195
*1470 FILLER_12_197
*1471 FILLER_12_209
*1472 FILLER_12_221
*1473 FILLER_12_233
*1474 FILLER_12_245
*1475 FILLER_12_251
*1476 FILLER_12_253
*1477 FILLER_12_27
*1478 FILLER_12_276
*1479 FILLER_12_29
*1480 FILLER_12_3
*1481 FILLER_12_300
*1482 FILLER_12_309
*1483 FILLER_12_322
*1484 FILLER_12_328
*1485 FILLER_12_338
*1486 FILLER_12_351
*1487 FILLER_12_355
*1488 FILLER_12_359
*1489 FILLER_12_363
*1490 FILLER_12_365
*1491 FILLER_12_377
*1492 FILLER_12_389
*1493 FILLER_12_393
*1494 FILLER_12_41
*1495 FILLER_12_56
*1496 FILLER_12_69
*1497 FILLER_12_82
*1498 FILLER_12_85
*1499 FILLER_13_102
*1500 FILLER_13_106
*1501 FILLER_13_110
*1502 FILLER_13_113
*1503 FILLER_13_135
*1504 FILLER_13_148
*1505 FILLER_13_160
*1506 FILLER_13_169
*1507 FILLER_13_181
*1508 FILLER_13_193
*1509 FILLER_13_20
*1510 FILLER_13_205
*1511 FILLER_13_217
*1512 FILLER_13_223
*1513 FILLER_13_225
*1514 FILLER_13_233
*1515 FILLER_13_240
*1516 FILLER_13_244
*1517 FILLER_13_248
*1518 FILLER_13_256
*1519 FILLER_13_260
*1520 FILLER_13_267
*1521 FILLER_13_274
*1522 FILLER_13_281
*1523 FILLER_13_292
*1524 FILLER_13_3
*1525 FILLER_13_305
*1526 FILLER_13_313
*1527 FILLER_13_32
*1528 FILLER_13_334
*1529 FILLER_13_337
*1530 FILLER_13_365
*1531 FILLER_13_377
*1532 FILLER_13_385
*1533 FILLER_13_390
*1534 FILLER_13_393
*1535 FILLER_13_44
*1536 FILLER_13_57
*1537 FILLER_13_63
*1538 FILLER_13_73
*1539 FILLER_13_79
*1540 FILLER_13_8
*1541 FILLER_13_89
*1542 FILLER_14_107
*1543 FILLER_14_113
*1544 FILLER_14_117
*1545 FILLER_14_130
*1546 FILLER_14_138
*1547 FILLER_14_141
*1548 FILLER_14_15
*1549 FILLER_14_153
*1550 FILLER_14_165
*1551 FILLER_14_177
*1552 FILLER_14_189
*1553 FILLER_14_195
*1554 FILLER_14_197
*1555 FILLER_14_209
*1556 FILLER_14_221
*1557 FILLER_14_229
*1558 FILLER_14_250
*1559 FILLER_14_253
*1560 FILLER_14_27
*1561 FILLER_14_275
*1562 FILLER_14_29
*1563 FILLER_14_298
*1564 FILLER_14_3
*1565 FILLER_14_305
*1566 FILLER_14_309
*1567 FILLER_14_320
*1568 FILLER_14_330
*1569 FILLER_14_336
*1570 FILLER_14_346
*1571 FILLER_14_353
*1572 FILLER_14_360
*1573 FILLER_14_365
*1574 FILLER_14_377
*1575 FILLER_14_389
*1576 FILLER_14_393
*1577 FILLER_14_41
*1578 FILLER_14_53
*1579 FILLER_14_74
*1580 FILLER_14_78
*1581 FILLER_14_82
*1582 FILLER_14_85
*1583 FILLER_15_100
*1584 FILLER_15_107
*1585 FILLER_15_111
*1586 FILLER_15_113
*1587 FILLER_15_119
*1588 FILLER_15_141
*1589 FILLER_15_15
*1590 FILLER_15_153
*1591 FILLER_15_165
*1592 FILLER_15_169
*1593 FILLER_15_183
*1594 FILLER_15_195
*1595 FILLER_15_207
*1596 FILLER_15_219
*1597 FILLER_15_223
*1598 FILLER_15_225
*1599 FILLER_15_236
*1600 FILLER_15_246
*1601 FILLER_15_254
*1602 FILLER_15_261
*1603 FILLER_15_27
*1604 FILLER_15_274
*1605 FILLER_15_281
*1606 FILLER_15_289
*1607 FILLER_15_3
*1608 FILLER_15_313
*1609 FILLER_15_326
*1610 FILLER_15_333
*1611 FILLER_15_337
*1612 FILLER_15_342
*1613 FILLER_15_355
*1614 FILLER_15_362
*1615 FILLER_15_374
*1616 FILLER_15_386
*1617 FILLER_15_39
*1618 FILLER_15_393
*1619 FILLER_15_51
*1620 FILLER_15_55
*1621 FILLER_15_57
*1622 FILLER_15_68
*1623 FILLER_15_75
*1624 FILLER_15_79
*1625 FILLER_16_118
*1626 FILLER_16_131
*1627 FILLER_16_138
*1628 FILLER_16_141
*1629 FILLER_16_15
*1630 FILLER_16_153
*1631 FILLER_16_165
*1632 FILLER_16_177
*1633 FILLER_16_189
*1634 FILLER_16_195
*1635 FILLER_16_197
*1636 FILLER_16_209
*1637 FILLER_16_221
*1638 FILLER_16_229
*1639 FILLER_16_233
*1640 FILLER_16_240
*1641 FILLER_16_246
*1642 FILLER_16_250
*1643 FILLER_16_253
*1644 FILLER_16_264
*1645 FILLER_16_27
*1646 FILLER_16_272
*1647 FILLER_16_282
*1648 FILLER_16_29
*1649 FILLER_16_295
*1650 FILLER_16_3
*1651 FILLER_16_305
*1652 FILLER_16_309
*1653 FILLER_16_332
*1654 FILLER_16_356
*1655 FILLER_16_365
*1656 FILLER_16_370
*1657 FILLER_16_382
*1658 FILLER_16_41
*1659 FILLER_16_53
*1660 FILLER_16_60
*1661 FILLER_16_68
*1662 FILLER_16_74
*1663 FILLER_16_82
*1664 FILLER_16_85
*1665 FILLER_16_94
*1666 FILLER_17_110
*1667 FILLER_17_113
*1668 FILLER_17_126
*1669 FILLER_17_140
*1670 FILLER_17_15
*1671 FILLER_17_152
*1672 FILLER_17_164
*1673 FILLER_17_169
*1674 FILLER_17_181
*1675 FILLER_17_193
*1676 FILLER_17_205
*1677 FILLER_17_217
*1678 FILLER_17_223
*1679 FILLER_17_225
*1680 FILLER_17_247
*1681 FILLER_17_260
*1682 FILLER_17_27
*1683 FILLER_17_273
*1684 FILLER_17_279
*1685 FILLER_17_281
*1686 FILLER_17_292
*1687 FILLER_17_299
*1688 FILLER_17_3
*1689 FILLER_17_306
*1690 FILLER_17_310
*1691 FILLER_17_320
*1692 FILLER_17_324
*1693 FILLER_17_334
*1694 FILLER_17_337
*1695 FILLER_17_342
*1696 FILLER_17_346
*1697 FILLER_17_367
*1698 FILLER_17_379
*1699 FILLER_17_39
*1700 FILLER_17_391
*1701 FILLER_17_393
*1702 FILLER_17_51
*1703 FILLER_17_55
*1704 FILLER_17_57
*1705 FILLER_17_68
*1706 FILLER_17_75
*1707 FILLER_17_82
*1708 FILLER_17_95
*1709 FILLER_18_105
*1710 FILLER_18_112
*1711 FILLER_18_136
*1712 FILLER_18_141
*1713 FILLER_18_146
*1714 FILLER_18_15
*1715 FILLER_18_158
*1716 FILLER_18_170
*1717 FILLER_18_182
*1718 FILLER_18_194
*1719 FILLER_18_197
*1720 FILLER_18_209
*1721 FILLER_18_237
*1722 FILLER_18_250
*1723 FILLER_18_253
*1724 FILLER_18_27
*1725 FILLER_18_279
*1726 FILLER_18_29
*1727 FILLER_18_3
*1728 FILLER_18_303
*1729 FILLER_18_307
*1730 FILLER_18_309
*1731 FILLER_18_314
*1732 FILLER_18_321
*1733 FILLER_18_329
*1734 FILLER_18_340
*1735 FILLER_18_353
*1736 FILLER_18_360
*1737 FILLER_18_365
*1738 FILLER_18_370
*1739 FILLER_18_382
*1740 FILLER_18_41
*1741 FILLER_18_53
*1742 FILLER_18_58
*1743 FILLER_18_82
*1744 FILLER_18_85
*1745 FILLER_18_96
*1746 FILLER_19_100
*1747 FILLER_19_110
*1748 FILLER_19_113
*1749 FILLER_19_124
*1750 FILLER_19_138
*1751 FILLER_19_145
*1752 FILLER_19_15
*1753 FILLER_19_157
*1754 FILLER_19_165
*1755 FILLER_19_169
*1756 FILLER_19_175
*1757 FILLER_19_182
*1758 FILLER_19_194
*1759 FILLER_19_206
*1760 FILLER_19_218
*1761 FILLER_19_225
*1762 FILLER_19_231
*1763 FILLER_19_239
*1764 FILLER_19_249
*1765 FILLER_19_262
*1766 FILLER_19_27
*1767 FILLER_19_272
*1768 FILLER_19_281
*1769 FILLER_19_286
*1770 FILLER_19_297
*1771 FILLER_19_3
*1772 FILLER_19_304
*1773 FILLER_19_321
*1774 FILLER_19_334
*1775 FILLER_19_337
*1776 FILLER_19_343
*1777 FILLER_19_364
*1778 FILLER_19_376
*1779 FILLER_19_388
*1780 FILLER_19_39
*1781 FILLER_19_393
*1782 FILLER_19_51
*1783 FILLER_19_55
*1784 FILLER_19_57
*1785 FILLER_19_79
*1786 FILLER_19_96
*1787 FILLER_1_105
*1788 FILLER_1_110
*1789 FILLER_1_113
*1790 FILLER_1_118
*1791 FILLER_1_142
*1792 FILLER_1_166
*1793 FILLER_1_169
*1794 FILLER_1_173
*1795 FILLER_1_194
*1796 FILLER_1_20
*1797 FILLER_1_205
*1798 FILLER_1_218
*1799 FILLER_1_225
*1800 FILLER_1_237
*1801 FILLER_1_261
*1802 FILLER_1_273
*1803 FILLER_1_279
*1804 FILLER_1_281
*1805 FILLER_1_293
*1806 FILLER_1_3
*1807 FILLER_1_305
*1808 FILLER_1_317
*1809 FILLER_1_32
*1810 FILLER_1_329
*1811 FILLER_1_335
*1812 FILLER_1_337
*1813 FILLER_1_349
*1814 FILLER_1_361
*1815 FILLER_1_373
*1816 FILLER_1_385
*1817 FILLER_1_390
*1818 FILLER_1_393
*1819 FILLER_1_44
*1820 FILLER_1_57
*1821 FILLER_1_69
*1822 FILLER_1_8
*1823 FILLER_1_81
*1824 FILLER_1_93
*1825 FILLER_20_120
*1826 FILLER_20_137
*1827 FILLER_20_141
*1828 FILLER_20_149
*1829 FILLER_20_161
*1830 FILLER_20_173
*1831 FILLER_20_185
*1832 FILLER_20_193
*1833 FILLER_20_197
*1834 FILLER_20_20
*1835 FILLER_20_209
*1836 FILLER_20_221
*1837 FILLER_20_227
*1838 FILLER_20_231
*1839 FILLER_20_241
*1840 FILLER_20_250
*1841 FILLER_20_253
*1842 FILLER_20_264
*1843 FILLER_20_274
*1844 FILLER_20_29
*1845 FILLER_20_3
*1846 FILLER_20_302
*1847 FILLER_20_309
*1848 FILLER_20_331
*1849 FILLER_20_355
*1850 FILLER_20_362
*1851 FILLER_20_365
*1852 FILLER_20_377
*1853 FILLER_20_392
*1854 FILLER_20_41
*1855 FILLER_20_53
*1856 FILLER_20_62
*1857 FILLER_20_69
*1858 FILLER_20_77
*1859 FILLER_20_8
*1860 FILLER_20_82
*1861 FILLER_20_85
*1862 FILLER_20_96
*1863 FILLER_21_105
*1864 FILLER_21_111
*1865 FILLER_21_113
*1866 FILLER_21_139
*1867 FILLER_21_146
*1868 FILLER_21_15
*1869 FILLER_21_158
*1870 FILLER_21_166
*1871 FILLER_21_169
*1872 FILLER_21_181
*1873 FILLER_21_193
*1874 FILLER_21_205