*SPEF "ieee 1481-1999"
*DESIGN "clock_divider"
*DATE "11:11:11 Fri 11 11, 1111"
*VENDOR "OpenRCX"
*PROGRAM "Parallel Extraction"
*VERSION "1.0"
*DESIGN_FLOW "NAME_SCOPE LOCAL" "PIN_CAP NONE"
*DIVIDER /
*DELIMITER :
*BUS_DELIMITER []
*T_UNIT 1 NS
*C_UNIT 1 PF
*R_UNIT 1 OHM
*L_UNIT 1 HENRY

*NAME_MAP
*3 clock_in
*4 clock_out
*5 _000_
*6 _001_
*7 _002_
*8 _003_
*9 _004_
*10 _029_
*11 _030_
*12 _031_
*13 _032_
*14 _033_
*15 _034_
*16 _035_
*17 _036_
*18 _037_
*19 _038_
*20 _039_
*21 _040_
*22 _041_
*23 _042_
*24 counter\[0\]
*25 counter\[10\]
*26 counter\[11\]
*27 counter\[12\]
*28 counter\[13\]
*29 counter\[14\]
*30 counter\[15\]
*31 counter\[16\]
*32 counter\[17\]
*33 counter\[18\]
*34 counter\[19\]
*35 counter\[1\]
*36 counter\[20\]
*37 counter\[21\]
*38 counter\[22\]
*39 counter\[23\]
*40 counter\[24\]
*41 counter\[25\]
*42 counter\[26\]
*43 counter\[27\]
*44 counter\[2\]
*45 counter\[3\]
*46 counter\[4\]
*47 counter\[5\]
*48 counter\[6\]
*49 counter\[7\]
*50 counter\[8\]
*51 counter\[9\]
*52 net1
*53 net10
*54 net11
*55 net12
*56 net13
*57 net14
*58 net15
*59 net16
*60 net17
*61 net18
*62 net19
*63 net2
*64 net20
*65 net21
*66 net22
*67 net23
*68 net24
*69 net25
*70 net26
*71 net3
*72 net4
*73 net5
*74 net6
*75 net7
*76 net8
*77 net9
*78 FILLER_0_12
*79 FILLER_0_24
*80 FILLER_0_29
*81 FILLER_0_33
*82 FILLER_0_37
*83 FILLER_0_49
*84 FILLER_0_55
*85 FILLER_0_57
*86 FILLER_0_69
*87 FILLER_0_81
*88 FILLER_0_85
*89 FILLER_10_24
*90 FILLER_10_29
*91 FILLER_10_3
*92 FILLER_10_33
*93 FILLER_10_50
*94 FILLER_10_7
*95 FILLER_10_70
*96 FILLER_10_79
*97 FILLER_10_83
*98 FILLER_10_85
*99 FILLER_11_13
*100 FILLER_11_20
*101 FILLER_11_27
*102 FILLER_11_47
*103 FILLER_11_55
*104 FILLER_11_6
*105 FILLER_11_63
*106 FILLER_11_73
*107 FILLER_11_80
*108 FILLER_11_88
*109 FILLER_12_10
*110 FILLER_12_17
*111 FILLER_12_24
*112 FILLER_12_29
*113 FILLER_12_3
*114 FILLER_12_46
*115 FILLER_12_66
*116 FILLER_12_74
*117 FILLER_12_82
*118 FILLER_12_85
*119 FILLER_13_13
*120 FILLER_13_20
*121 FILLER_13_27
*122 FILLER_13_3
*123 FILLER_13_47
*124 FILLER_13_55
*125 FILLER_13_62
*126 FILLER_13_69
*127 FILLER_13_81
*128 FILLER_13_9
*129 FILLER_14_15
*130 FILLER_14_24
*131 FILLER_14_29
*132 FILLER_14_3
*133 FILLER_14_33
*134 FILLER_14_37
*135 FILLER_14_45
*136 FILLER_14_50
*137 FILLER_14_60
*138 FILLER_14_72
*139 FILLER_14_80
*140 FILLER_14_85
*141 FILLER_1_15
*142 FILLER_1_19
*143 FILLER_1_26
*144 FILLER_1_3
*145 FILLER_1_46
*146 FILLER_1_54
*147 FILLER_1_62
*148 FILLER_1_74
*149 FILLER_1_86
*150 FILLER_2_11
*151 FILLER_2_17
*152 FILLER_2_24
*153 FILLER_2_29
*154 FILLER_2_3
*155 FILLER_2_47
*156 FILLER_2_57
*157 FILLER_2_67
*158 FILLER_2_79
*159 FILLER_2_83
*160 FILLER_2_85
*161 FILLER_3_12
*162 FILLER_3_19
*163 FILLER_3_26
*164 FILLER_3_3
*165 FILLER_3_46
*166 FILLER_3_54
*167 FILLER_3_74
*168 FILLER_3_81
*169 FILLER_4_24
*170 FILLER_4_29
*171 FILLER_4_3
*172 FILLER_4_49
*173 FILLER_4_69
*174 FILLER_4_7
*175 FILLER_4_78
*176 FILLER_4_85
*177 FILLER_5_27
*178 FILLER_5_3
*179 FILLER_5_47
*180 FILLER_5_55
*181 FILLER_5_7
*182 FILLER_5_73
*183 FILLER_5_83
*184 FILLER_6_24
*185 FILLER_6_29
*186 FILLER_6_3
*187 FILLER_6_38
*188 FILLER_6_58
*189 FILLER_6_7
*190 FILLER_6_78
*191 FILLER_6_85
*192 FILLER_7_12
*193 FILLER_7_3
*194 FILLER_7_32
*195 FILLER_7_52
*196 FILLER_7_73
*197 FILLER_7_84
*198 FILLER_7_88
*199 FILLER_8_24
*200 FILLER_8_29
*201 FILLER_8_3
*202 FILLER_8_40
*203 FILLER_8_60
*204 FILLER_8_7
*205 FILLER_8_80
*206 FILLER_8_85
*207 FILLER_9_25
*208 FILLER_9_3
*209 FILLER_9_45
*210 FILLER_9_52
*211 FILLER_9_73
*212 FILLER_9_83
*213 PHY_0
*214 PHY_1
*215 PHY_10
*216 PHY_11
*217 PHY_12
*218 PHY_13
*219 PHY_14
*220 PHY_15
*221 PHY_16
*222 PHY_17
*223 PHY_18
*224 PHY_19
*225 PHY_2
*226 PHY_20
*227 PHY_21
*228 PHY_22
*229 PHY_23
*230 PHY_24
*231 PHY_25
*232 PHY_26
*233 PHY_27
*234 PHY_28
*235 PHY_29
*236 PHY_3
*237 PHY_4
*238 PHY_5
*239 PHY_6
*240 PHY_7
*241 PHY_8
*242 PHY_9
*243 TAP_30
*244 TAP_31
*245 TAP_32
*246 TAP_33
*247 TAP_34
*248 TAP_35
*249 TAP_36
*250 TAP_37
*251 TAP_38
*252 TAP_39
*253 TAP_40
*254 TAP_41
*255 TAP_42
*256 TAP_43
*257 TAP_44
*258 TAP_45
*259 TAP_46
*260 TAP_47
*261 TAP_48
*262 TAP_49
*263 TAP_50
*264 TAP_51
*265 TAP_52
*266 TAP_53
*267 TAP_54
*268 _043_
*269 _044_
*270 _045_
*271 _046_
*272 _047_
*273 _048_
*274 _049_
*275 _050_
*276 _051_
*277 _052_
*278 _053_
*279 _054_
*280 _055_
*281 _056_
*282 _057_
*283 _058_
*284 _059_
*285 _060_
*286 _061_
*287 _062_
*288 _063_
*289 _064_
*290 _065_
*291 _066_
*292 _067_
*293 _068_
*294 _069_
*295 _070_
*296 _071_
*297 _072_
*298 _073_
*299 _074_
*300 _075_
*301 _076_
*302 _077_
*303 _078_
*304 _079_
*305 _080_
*306 _081_
*307 _082_
*308 _083_
*309 _084_
*310 _085_
*311 _086_
*312 _087_
*313 _088_
*314 _089_
*315 _090_
*316 _091__3
*317 _092__4
*318 _093__5
*319 _094__6
*320 _095__7
*321 _096__8
*322 _097__9
*323 _098__10
*324 _099__11
*325 _100__12
*326 _101__13
*327 _102__14
*328 _103__15
*329 _104__16
*330 _105__17
*331 _106__18
*332 _107__19
*333 _108__20
*334 _109__21
*335 _110__22
*336 _111__23
*337 _112__24
*338 _113__25
*339 _114__26
*340 input1
*341 output2

*PORTS
clock_in I
clock_out O

*D_NET *3 0.00187332
*CONN
*P clock_in I
*I *340:A I *D sky130_fd_sc_hd__buf_4
*CAP
1 clock_in 0.000936662
2 *340:A 0.000936662
*RES
1 clock_in *340:A 38.7306 
*END

*D_NET *4 0.00140851
*CONN
*P clock_out O
*I *341:X O *D sky130_fd_sc_hd__buf_6
*CAP
1 clock_out 0.000704255
2 *341:X 0.000704255
*RES
1 *341:X clock_out 32.6355 
*END

*D_NET *5 0.00375311
*CONN
*I *315:D I *D sky130_fd_sc_hd__dfxtp_2
*I *278:Y O *D sky130_fd_sc_hd__nor2_1
*CAP
1 *315:D 0
2 *278:Y 0.000920601
3 *5:9 0.000920601
4 *5:9 *270:A 3.23874e-05
5 *5:9 *276:A 3.13024e-05
6 *5:9 *284:B1 3.57378e-06
7 *5:9 *285:B 0.000188766
8 *5:9 *24:16 0.000537396
9 *5:9 *31:17 0.000269785
10 *5:9 *32:14 0.000157611
11 *5:9 *38:11 0.0001195
12 *5:9 *44:19 1.92296e-05
13 *5:9 *65:22 0.000552356
*RES
1 *278:Y *5:9 47.867 
2 *5:9 *315:D 9.24915 
*END

*D_NET *6 0.004058
*CONN
*I *287:D I *D sky130_fd_sc_hd__dfxtp_1
*I *281:Y O *D sky130_fd_sc_hd__nor2_1
*CAP
1 *287:D 6.3121e-05
2 *281:Y 0.0010324
3 *6:13 0.00109552
4 *287:D *282:A 0.0001132
5 *287:D *287:CLK 1.41976e-05
6 *287:D *32:14 3.65247e-05
7 *6:13 *281:B 6.98337e-06
8 *6:13 *287:CLK 1.65872e-05
9 *6:13 *312:D 0
10 *6:13 *27:14 3.27973e-05
11 *6:13 *32:14 6.08467e-05
12 *6:13 *41:15 0.0011498
13 *6:13 *47:13 0.000436019
14 *6:13 *54:13 0
*RES
1 *281:Y *6:13 49.7948 
2 *6:13 *287:D 11.7087 
*END

*D_NET *7 0.00347926
*CONN
*I *288:D I *D sky130_fd_sc_hd__dfxtp_1
*I *283:Y O *D sky130_fd_sc_hd__nor2_1
*CAP
1 *288:D 0
2 *283:Y 0.000627768
3 *7:11 0.000627768
4 *7:11 *283:A 0.000905087
5 *7:11 *286:A1 0.000141973
6 *7:11 *288:CLK 4.10899e-05
7 *7:11 *290:D 0.000201215
8 *7:11 *300:D 1.87611e-05
9 *7:11 *18:44 0.000302934
10 *7:11 *41:15 0.000612667
*RES
1 *283:Y *7:11 41.9839 
2 *7:11 *288:D 9.24915 
*END

*D_NET *8 0.00332448
*CONN
*I *289:D I *D sky130_fd_sc_hd__dfxtp_1
*I *285:Y O *D sky130_fd_sc_hd__nor3_1
*CAP
1 *289:D 0
2 *285:Y 0.00102125
3 *8:11 0.00102125
4 *8:11 *270:D 3.56119e-05
5 *8:11 *272:C 7.62627e-06
6 *8:11 *285:A 5.36586e-05
7 *8:11 *285:B 0
8 *8:11 *289:CLK 3.95324e-05
9 *8:11 *311:CLK 0
10 *8:11 *18:10 7.40084e-05
11 *8:11 *18:24 0
12 *8:11 *31:17 0.00020757
13 *8:11 *41:15 0.000828161
14 *8:11 *52:118 3.58065e-05
*RES
1 *285:Y *8:11 45.1178 
2 *8:11 *289:D 9.24915 
*END

*D_NET *9 0.00291676
*CONN
*I *290:D I *D sky130_fd_sc_hd__dfxtp_1
*I *286:X O *D sky130_fd_sc_hd__o21ba_1
*CAP
1 *290:D 0.00107559
2 *286:X 0.00107559
3 *290:D *268:C 9.29777e-05
4 *290:D *279:A2 0.000100212
5 *290:D *286:A1 0.000236803
6 *290:D *286:B1_N 2.58757e-05
7 *290:D *303:D 1.1066e-05
8 *290:D *11:7 9.74302e-05
9 *7:11 *290:D 0.000201215
*RES
1 *286:X *290:D 45.0099 
*END

*D_NET *10 0.00577846
*CONN
*I *279:B1 I *D sky130_fd_sc_hd__a31o_1
*I *278:A I *D sky130_fd_sc_hd__nor2_1
*I *268:X O *D sky130_fd_sc_hd__or4_1
*CAP
1 *279:B1 0.000768503
2 *278:A 0.000447331
3 *268:X 0
4 *10:4 0.00121583
5 *278:A *268:B 6.37146e-05
6 *278:A *268:C 0.0004186
7 *278:A *273:A 3.54435e-05
8 *278:A *273:B 2.07503e-05
9 *278:A *278:B 0.000398158
10 *278:A *18:44 4.27159e-05
11 *278:A *26:13 1.34853e-05
12 *278:A *28:10 1.37189e-05
13 *278:A *29:17 0.000445843
14 *279:B1 *275:A 0.000517745
15 *279:B1 *275:B 1.94615e-05
16 *279:B1 *277:B 6.08467e-05
17 *279:B1 *278:B 0.000157107
18 *279:B1 *279:A1 6.24474e-06
19 *279:B1 *279:A2 7.01935e-06
20 *279:B1 *280:B 0.000249368
21 *279:B1 *17:9 0.000186597
22 *279:B1 *18:44 3.7504e-05
23 *279:B1 *28:10 0.00032677
24 *279:B1 *52:248 0.000141641
25 *279:B1 *52:253 0.0001449
26 *279:B1 *59:15 3.91558e-05
*RES
1 *268:X *10:4 9.24915 
2 *10:4 *278:A 35.0292 
3 *10:4 *279:B1 42.4655 
*END

*D_NET *11 0.00823719
*CONN
*I *271:A I *D sky130_fd_sc_hd__or2_1
*I *269:X O *D sky130_fd_sc_hd__or4_1
*CAP
1 *271:A 0.000393996
2 *269:X 0.00221908
3 *11:7 0.00261308
4 *271:A *304:CLK 0.000159038
5 *271:A *13:8 3.95925e-05
6 *271:A *20:11 8.36586e-06
7 *271:A *23:10 0.0002437
8 *271:A *39:9 0.000611654
9 *11:7 *269:B 0.000309828
10 *11:7 *279:A2 0.000263469
11 *11:7 *290:CLK 2.17699e-05
12 *11:7 *293:CLK 6.36477e-05
13 *11:7 *31:17 0.00107751
14 *11:7 *68:9 0.000115021
15 *290:D *11:7 9.74302e-05
*RES
1 *269:X *11:7 49.4126 
2 *11:7 *271:A 28.0738 
*END

*D_NET *12 0.00226086
*CONN
*I *271:B I *D sky130_fd_sc_hd__or2_1
*I *270:X O *D sky130_fd_sc_hd__or4_1
*CAP
1 *271:B 0.000368424
2 *270:X 0.000368424
3 *271:B *270:A 0.000134249
4 *271:B *274:A 6.78364e-06
5 *271:B *274:B 0.000265041
6 *271:B *315:CLK 0.000148017
7 *271:B *16:8 0.000354448
8 *271:B *23:10 0.000309602
9 *271:B *39:9 0.000305874
*RES
1 *270:X *271:B 42.6646 
*END

*D_NET *13 0.00614284
*CONN
*I *280:A I *D sky130_fd_sc_hd__or3_1
*I *277:B I *D sky130_fd_sc_hd__or4_1
*I *271:X O *D sky130_fd_sc_hd__or2_1
*CAP
1 *280:A 0.000275715
2 *277:B 4.51842e-05
3 *271:X 0.00053912
4 *13:8 0.000860019
5 *280:A *277:A 7.26748e-05
6 *280:A *284:A1 4.13313e-05
7 *280:A *20:11 0.000421789
8 *280:A *59:15 0.000414822
9 *280:A *67:10 0.000348879
10 *13:8 *272:A 0.000448387
11 *13:8 *277:A 0.000169048
12 *13:8 *304:CLK 0.00025233
13 *13:8 *39:9 0.000985706
14 *13:8 *67:10 0.0011674
15 *271:A *13:8 3.95925e-05
16 *279:B1 *277:B 6.08467e-05
*RES
1 *271:X *13:8 40.6735 
2 *13:8 *277:B 14.4725 
3 *13:8 *280:A 26.0003 
*END

*D_NET *14 0.00234257
*CONN
*I *275:A I *D sky130_fd_sc_hd__or3_1
*I *272:X O *D sky130_fd_sc_hd__or4_1
*CAP
1 *275:A 0.000518569
2 *272:X 0.000518569
3 *275:A *275:B 0.00020212
4 *275:A *275:C 0.000156946
5 *275:A *16:8 0.000338199
6 *275:A *52:253 9.04186e-05
7 *279:B1 *275:A 0.000517745
*RES
1 *272:X *275:A 46.5595 
*END

*D_NET *15 0.000847844
*CONN
*I *275:B I *D sky130_fd_sc_hd__or3_1
*I *273:X O *D sky130_fd_sc_hd__or4_1
*CAP
1 *275:B 0.000247746
2 *273:X 0.000247746
3 *275:B *275:C 7.92757e-06
4 *275:B *16:8 0.000122844
5 *275:A *275:B 0.00020212
6 *279:B1 *275:B 1.94615e-05
*RES
1 *273:X *275:B 33.3785 
*END

*D_NET *16 0.00434824
*CONN
*I *275:C I *D sky130_fd_sc_hd__or3_1
*I *274:X O *D sky130_fd_sc_hd__or4_1
*CAP
1 *275:C 0.000128576
2 *274:X 0.00153463
3 *16:8 0.00166321
4 *16:8 *272:A 4.14581e-05
5 *271:B *16:8 0.000354448
6 *275:A *275:C 0.000156946
7 *275:A *16:8 0.000338199
8 *275:B *275:C 7.92757e-06
9 *275:B *16:8 0.000122844
*RES
1 *274:X *16:8 48.8476 
2 *16:8 *275:C 16.691 
*END

*D_NET *17 0.00230141
*CONN
*I *277:C I *D sky130_fd_sc_hd__or4_1
*I *280:B I *D sky130_fd_sc_hd__or3_1
*I *275:X O *D sky130_fd_sc_hd__or3_1
*CAP
1 *277:C 0
2 *280:B 0.000440062
3 *275:X 0.000147718
4 *17:9 0.00058778
5 *280:B *18:44 9.19983e-05
6 *280:B *43:10 0.000134976
7 *280:B *59:15 0.000215118
8 *280:B *67:10 7.30792e-05
9 *17:9 *18:44 3.82228e-05
10 *17:9 *28:10 1.34424e-05
11 *17:9 *59:15 5.04829e-06
12 *17:9 *64:11 0.000118002
13 *279:B1 *280:B 0.000249368
14 *279:B1 *17:9 0.000186597
*RES
1 *275:X *17:9 22.8836 
2 *17:9 *280:B 29.5627 
3 *17:9 *277:C 9.24915 
*END

*D_NET *18 0.0107072
*CONN
*I *285:A I *D sky130_fd_sc_hd__nor3_1
*I *277:D I *D sky130_fd_sc_hd__or4_1
*I *286:A2 I *D sky130_fd_sc_hd__o21ba_1
*I *276:X O *D sky130_fd_sc_hd__and3_1
*CAP
1 *285:A 5.51879e-05
2 *277:D 0
3 *286:A2 0
4 *276:X 0.000655717
5 *18:44 0.00095771
6 *18:24 0.00209458
7 *18:10 0.00184777
8 *18:10 *276:A 1.15862e-05
9 *18:10 *276:C 3.18748e-06
10 *18:10 *285:B 0
11 *18:10 *311:CLK 6.3215e-05
12 *18:10 *63:18 0
13 *18:24 *311:CLK 5.4421e-05
14 *18:24 *341:A 0.000169862
15 *18:24 *27:14 0.000838586
16 *18:24 *54:13 0.000894517
17 *18:24 *60:6 6.96846e-05
18 *18:24 *63:18 0.00037365
19 *18:44 *268:B 1.2659e-05
20 *18:44 *268:D 0.000249375
21 *18:44 *274:B 1.94614e-05
22 *18:44 *283:A 0.000230225
23 *18:44 *27:14 0.000260522
24 *18:44 *28:10 0.000630098
25 *18:44 *54:13 0.000574167
26 *278:A *18:44 4.27159e-05
27 *279:B1 *18:44 3.7504e-05
28 *280:B *18:44 9.19983e-05
29 *7:11 *18:44 0.000302934
30 *8:11 *285:A 5.36586e-05
31 *8:11 *18:10 7.40084e-05
32 *8:11 *18:24 0
33 *17:9 *18:44 3.82228e-05
*RES
1 *276:X *18:10 28.9842 
2 *18:10 *18:24 49.0087 
3 *18:24 *286:A2 13.7491 
4 *18:24 *18:44 44.7725 
5 *18:44 *277:D 9.24915 
6 *18:10 *285:A 11.0817 
*END

*D_NET *19 0.00245388
*CONN
*I *278:B I *D sky130_fd_sc_hd__nor2_1
*I *277:X O *D sky130_fd_sc_hd__or4_1
*CAP
1 *278:B 0.000388202
2 *277:X 0.000388202
3 *278:B *268:B 0.000287137
4 *278:B *273:A 0.000644285
5 *278:B *273:B 6.307e-05
6 *278:B *303:D 8.36586e-06
7 *278:B *43:10 0.000119349
8 *278:A *278:B 0.000398158
9 *279:B1 *278:B 0.000157107
*RES
1 *277:X *278:B 42.2788 
*END

*D_NET *20 0.00393026
*CONN
*I *280:C I *D sky130_fd_sc_hd__or3_1
*I *279:X O *D sky130_fd_sc_hd__a31o_1
*CAP
1 *280:C 0
2 *279:X 0.000828084
3 *20:11 0.000828084
4 *20:11 *277:A 0.000370975
5 *20:11 *279:A2 0.000132172
6 *20:11 *284:A1 0.000291452
7 *20:11 *23:10 0.00088075
8 *20:11 *39:9 3.83296e-05
9 *20:11 *59:15 6.27332e-05
10 *20:11 *64:11 6.75269e-05
11 *271:A *20:11 8.36586e-06
12 *280:A *20:11 0.000421789
*RES
1 *279:X *20:11 46.733 
2 *20:11 *280:C 9.24915 
*END

*D_NET *21 0.0112602
*CONN
*I *281:B I *D sky130_fd_sc_hd__nor2_1
*I *283:A I *D sky130_fd_sc_hd__nor2_1
*I *286:B1_N I *D sky130_fd_sc_hd__o21ba_1
*I *285:B I *D sky130_fd_sc_hd__nor3_1
*I *280:X O *D sky130_fd_sc_hd__or3_1
*CAP
1 *281:B 0.000166928
2 *283:A 0.000761224
3 *286:B1_N 0.000721917
4 *285:B 0.000948712
5 *280:X 0.000302485
6 *21:14 0.00198937
7 *21:8 0.00125902
8 *21:7 0.000648471
9 *281:B *281:A 8.81107e-05
10 *281:B *52:313 5.23577e-05
11 *283:A *28:10 0.000114584
12 *285:B *272:C 4.75721e-06
13 *285:B *276:C 0
14 *285:B *285:C 3.14978e-05
15 *285:B *311:CLK 5.64149e-05
16 *285:B *24:16 0.000393721
17 *285:B *38:11 4.89288e-05
18 *285:B *52:109 0.00016661
19 *285:B *52:118 0.000200159
20 *285:B *52:181 0.000245962
21 *286:B1_N *303:D 1.03403e-05
22 *286:B1_N *54:13 1.66626e-05
23 *286:B1_N *60:6 1.94472e-05
24 *21:7 *59:15 0.000450693
25 *21:8 *281:A 9.36438e-06
26 *21:8 *314:D 0.000113309
27 *21:8 *24:16 5.06165e-06
28 *21:8 *52:313 0.000118136
29 *21:14 *314:D 6.49228e-05
30 *21:14 *24:16 0.000517546
31 *21:14 *52:98 0.000332534
32 *21:14 *52:109 4.40505e-05
33 *290:D *286:B1_N 2.58757e-05
34 *5:9 *285:B 0.000188766
35 *6:13 *281:B 6.98337e-06
36 *7:11 *283:A 0.000905087
37 *8:11 *285:B 0
38 *18:10 *285:B 0
39 *18:44 *283:A 0.000230225
*RES
1 *280:X *21:7 18.9094 
2 *21:7 *21:8 5.15401 
3 *21:8 *21:14 12.079 
4 *21:14 *285:B 40.7361 
5 *21:14 *286:B1_N 22.7095 
6 *21:8 *283:A 28.9646 
7 *21:7 *281:B 18.7961 
*END

*D_NET *22 0.00242711
*CONN
*I *283:B I *D sky130_fd_sc_hd__nor2_1
*I *282:Y O *D sky130_fd_sc_hd__xnor2_1
*CAP
1 *283:B 0.000534294
2 *282:Y 0.000534294
3 *283:B *29:17 0.000432721
4 *283:B *32:14 6.64392e-05
5 *283:B *52:28 1.22289e-05
6 *283:B *66:10 0.000648665
7 *283:B *76:8 0.000198467
*RES
1 *282:Y *283:B 46.8059 
*END

*D_NET *23 0.00614797
*CONN
*I *285:C I *D sky130_fd_sc_hd__nor3_1
*I *284:Y O *D sky130_fd_sc_hd__a21oi_1
*CAP
1 *285:C 0.000552418
2 *284:Y 3.94027e-05
3 *23:10 0.00172715
4 *23:7 0.00121413
5 *23:7 *284:B1 1.03403e-05
6 *23:10 *279:A3 5.50734e-05
7 *23:10 *284:A1 1.79484e-05
8 *23:10 *304:CLK 1.85244e-05
9 *23:10 *315:CLK 1.29948e-05
10 *23:10 *39:9 9.07502e-05
11 *23:10 *52:265 4.26712e-05
12 *23:10 *52:274 0.000131679
13 *23:10 *64:11 0.000769334
14 *271:A *23:10 0.0002437
15 *271:B *23:10 0.000309602
16 *285:B *285:C 3.14978e-05
17 *20:11 *23:10 0.00088075
*RES
1 *284:Y *23:7 14.4725 
2 *23:7 *23:10 45.3657 
3 *23:10 *285:C 22.7284 
*END

*D_NET *24 0.00973935
*CONN
*I *276:C I *D sky130_fd_sc_hd__and3_1
*I *284:A2 I *D sky130_fd_sc_hd__a21oi_1
*I *281:A I *D sky130_fd_sc_hd__nor2_1
*I *282:B I *D sky130_fd_sc_hd__xnor2_1
*I *287:Q O *D sky130_fd_sc_hd__dfxtp_1
*CAP
1 *276:C 0.000641494
2 *284:A2 0.000355032
3 *281:A 0.000229015
4 *282:B 0.000597354
5 *287:Q 0
6 *24:16 0.00110633
7 *24:5 0.00138376
8 *24:4 0.000905623
9 *276:C *274:B 0.000213441
10 *276:C *276:A 0.000138137
11 *276:C *296:D 0
12 *276:C *26:13 6.93171e-05
13 *281:A *52:8 7.74525e-05
14 *281:A *52:12 6.46178e-05
15 *281:A *52:313 0.000155293
16 *282:B *282:A 0.000768111
17 *282:B *32:14 2.26713e-06
18 *284:A2 *284:B1 0.000805937
19 *284:A2 *314:D 9.37022e-05
20 *284:A2 *36:7 1.71281e-05
21 *284:A2 *52:12 1.85244e-05
22 *284:A2 *75:11 1.82679e-05
23 *24:5 *282:A 0.000136803
24 *24:16 *268:D 0.000122992
25 *24:16 *314:D 0.000167684
26 *24:16 *52:12 8.96615e-05
27 *24:16 *75:11 7.0179e-06
28 *281:B *281:A 8.81107e-05
29 *285:B *276:C 0
30 *285:B *24:16 0.000393721
31 *5:9 *24:16 0.000537396
32 *18:10 *276:C 3.18748e-06
33 *21:8 *281:A 9.36438e-06
34 *21:8 *24:16 5.06165e-06
35 *21:14 *24:16 0.000517546
*RES
1 *287:Q *24:4 9.24915 
2 *24:4 *24:5 4.05102 
3 *24:5 *282:B 19.6902 
4 *24:5 *24:16 25.226 
5 *24:16 *281:A 21.4952 
6 *24:16 *284:A2 25.5668 
7 *24:4 *276:C 34.4543 
*END

*D_NET *25 0.00134257
*CONN
*I *268:B I *D sky130_fd_sc_hd__or4_1
*I *297:Q O *D sky130_fd_sc_hd__dfxtp_1
*CAP
1 *268:B 0.00042315
2 *297:Q 0.00042315
3 *268:B *303:D 0.000116867
4 *268:B *26:13 1.41976e-05
5 *268:B *28:10 1.69394e-06
6 *278:A *268:B 6.37146e-05
7 *278:B *268:B 0.000287137
8 *18:44 *268:B 1.2659e-05
*RES
1 *297:Q *268:B 38.3005 
*END

*D_NET *26 0.00299692
*CONN
*I *268:A I *D sky130_fd_sc_hd__or4_1
*I *298:Q O *D sky130_fd_sc_hd__dfxtp_1
*CAP
1 *268:A 0
2 *298:Q 0.00064274
3 *26:13 0.00064274
4 *26:13 *268:C 0.000514613
5 *26:13 *268:D 7.35372e-05
6 *26:13 *274:B 0.000980436
7 *26:13 *28:10 1.99878e-05
8 *26:13 *47:13 2.58616e-05
9 *268:B *26:13 1.41976e-05
10 *276:C *26:13 6.93171e-05
11 *278:A *26:13 1.34853e-05
*RES
1 *298:Q *26:13 40.7905 
2 *26:13 *268:A 9.24915 
*END

*D_NET *27 0.00824214
*CONN
*I *273:D I *D sky130_fd_sc_hd__or4_1
*I *299:Q O *D sky130_fd_sc_hd__dfxtp_1
*CAP
1 *273:D 0.00133473
2 *299:Q 0.000869857
3 *27:14 0.00220459
4 *273:D *273:A 0.00189306
5 *27:14 *41:15 0.000129659
6 *27:14 *47:13 0.000173108
7 *27:14 *48:16 0.000284429
8 *27:14 *52:137 1.29211e-05
9 *27:14 *63:18 0.000207892
10 *6:13 *27:14 3.27973e-05
11 *18:24 *27:14 0.000838586
12 *18:44 *27:14 0.000260522
*RES
1 *299:Q *27:14 44.8431 
2 *27:14 *273:D 32.0361 
*END

*D_NET *28 0.00425866
*CONN
*I *273:C I *D sky130_fd_sc_hd__or4_1
*I *300:Q O *D sky130_fd_sc_hd__dfxtp_1
*CAP
1 *273:C 0
2 *300:Q 0.00147937
3 *28:10 0.00147937
4 *28:10 *268:D 1.4106e-05
5 *28:10 *59:15 0.00016553
6 *268:B *28:10 1.69394e-06
7 *278:A *28:10 1.37189e-05
8 *279:B1 *28:10 0.00032677
9 *283:A *28:10 0.000114584
10 *17:9 *28:10 1.34424e-05
11 *18:44 *28:10 0.000630098
12 *26:13 *28:10 1.99878e-05
*RES
1 *300:Q *28:10 44.3654 
2 *28:10 *273:C 9.24915 
*END

*D_NET *29 0.006187
*CONN
*I *273:B I *D sky130_fd_sc_hd__or4_1
*I *301:Q O *D sky130_fd_sc_hd__dfxtp_1
*CAP
1 *273:B 0.000730898
2 *301:Q 0.001156
3 *29:17 0.0018869
4 *273:B *273:A 1.53977e-05
5 *273:B *303:CLK 2.58106e-05
6 *273:B *303:D 3.48985e-05
7 *273:B *52:248 0.000117376
8 *29:17 *273:A 0.000144157
9 *29:17 *30:11 5.10995e-05
10 *29:17 *31:17 0.000252337
11 *29:17 *37:13 0.000154145
12 *29:17 *47:13 0.000203604
13 *29:17 *52:33 2.07503e-05
14 *29:17 *76:8 0.000431237
15 *278:A *273:B 2.07503e-05
16 *278:A *29:17 0.000445843
17 *278:B *273:B 6.307e-05
18 *283:B *29:17 0.000432721
*RES
1 *301:Q *29:17 47.3849 
2 *29:17 *273:B 19.9554 
*END

*D_NET *30 0.00610682
*CONN
*I *273:A I *D sky130_fd_sc_hd__or4_1
*I *302:Q O *D sky130_fd_sc_hd__dfxtp_1
*CAP
1 *273:A 0.000682603
2 *302:Q 0.000224412
3 *30:11 0.000907014
4 *273:A *303:CLK 0.000154145
5 *273:A *303:D 0.000205358
6 *273:A *52:248 0.000211101
7 *30:11 *52:33 0.000301361
8 *30:11 *68:9 6.35347e-05
9 *30:11 *69:11 0.00043553
10 *30:11 *76:8 0.00013832
11 *273:B *273:A 1.53977e-05
12 *273:D *273:A 0.00189306
13 *278:A *273:A 3.54435e-05
14 *278:B *273:A 0.000644285
15 *29:17 *273:A 0.000144157
16 *29:17 *30:11 5.10995e-05
*RES
1 *302:Q *30:11 27.2052 
2 *30:11 *273:A 37.2205 
*END

*D_NET *31 0.00524978
*CONN
*I *269:B I *D sky130_fd_sc_hd__or4_1
*I *303:Q O *D sky130_fd_sc_hd__dfxtp_1
*CAP
1 *269:B 0.000230578
2 *303:Q 0.000866296
3 *31:17 0.00109687
4 *269:B *269:A 0.000352178
5 *269:B *293:CLK 2.07365e-05
6 *31:17 *269:A 0.000139783
7 *31:17 *284:B1 0.000105183
8 *31:17 *289:CLK 6.0147e-05
9 *31:17 *290:CLK 7.56374e-05
10 *31:17 *293:CLK 2.47081e-05
11 *31:17 *48:16 4.36922e-05
12 *31:17 *68:9 0.000116931
13 *5:9 *31:17 0.000269785
14 *8:11 *31:17 0.00020757
15 *11:7 *269:B 0.000309828
16 *11:7 *31:17 0.00107751
17 *29:17 *31:17 0.000252337
*RES
1 *303:Q *31:17 47.2511 
2 *31:17 *269:B 18.6533 
*END

*D_NET *32 0.00527148
*CONN
*I *269:A I *D sky130_fd_sc_hd__or4_1
*I *304:Q O *D sky130_fd_sc_hd__dfxtp_1
*CAP
1 *269:A 0.000754101
2 *304:Q 0.00112382
3 *32:14 0.00187792
4 *32:14 *276:A 0.000384617
5 *32:14 *282:A 7.60577e-05
6 *32:14 *37:13 2.69435e-05
7 *32:14 *42:10 1.15766e-05
8 *32:14 *48:16 0.000200794
9 *269:B *269:A 0.000352178
10 *282:B *32:14 2.26713e-06
11 *283:B *32:14 6.64392e-05
12 *287:D *32:14 3.65247e-05
13 *5:9 *32:14 0.000157611
14 *6:13 *32:14 6.08467e-05
15 *31:17 *269:A 0.000139783
*RES
1 *304:Q *32:14 48.8208 
2 *32:14 *269:A 23.3554 
*END

*D_NET *33 0.000821153
*CONN
*I *269:D I *D sky130_fd_sc_hd__or4_1
*I *305:Q O *D sky130_fd_sc_hd__dfxtp_1
*CAP
1 *269:D 0.000137241
2 *305:Q 0.000137241
3 *269:D *34:10 0.000307836
4 *269:D *59:28 0.000238834
*RES
1 *305:Q *269:D 33.4828 
*END

*D_NET *34 0.00344282
*CONN
*I *269:C I *D sky130_fd_sc_hd__or4_1
*I *306:Q O *D sky130_fd_sc_hd__dfxtp_1
*CAP
1 *269:C 0
2 *306:Q 0.00142769
3 *34:10 0.00142769
4 *34:10 *291:D 0.000111295
5 *34:10 *37:13 0.000168313
6 *269:D *34:10 0.000307836
*RES
1 *306:Q *34:10 47.6762 
2 *34:10 *269:C 9.24915 
*END

*D_NET *35 0.0101994
*CONN
*I *284:A1 I *D sky130_fd_sc_hd__a21oi_1
*I *279:A3 I *D sky130_fd_sc_hd__a31o_1
*I *282:A I *D sky130_fd_sc_hd__xnor2_1
*I *276:B I *D sky130_fd_sc_hd__and3_1
*I *288:Q O *D sky130_fd_sc_hd__dfxtp_1
*CAP
1 *284:A1 0.000518294
2 *279:A3 0.00014731
3 *282:A 0.000535922
4 *276:B 0.000813535
5 *288:Q 0.000172282
6 *35:34 0.00105657
7 *35:8 0.00155496
8 *35:5 0.00076875
9 *276:B *270:A 0.000143633
10 *276:B *276:A 7.94337e-06
11 *276:B *296:D 0.000468342
12 *276:B *43:10 0.000244293
13 *276:B *65:22 1.02611e-05
14 *279:A3 *279:A1 0.000267394
15 *279:A3 *279:A2 0.000264612
16 *282:A *268:C 7.30223e-05
17 *282:A *287:CLK 6.08467e-05
18 *282:A *296:D 6.08467e-05
19 *282:A *48:16 3.81525e-05
20 *284:A1 *277:A 0.000187287
21 *284:A1 *284:B1 6.08467e-05
22 *284:A1 *52:236 0.000356236
23 *284:A1 *64:11 0.000387245
24 *35:5 *286:A1 0.000117566
25 *35:8 *43:10 5.99305e-05
26 *35:8 *45:10 0.000188637
27 *35:34 *277:A 8.71763e-05
28 *35:34 *286:A1 2.16355e-05
29 *35:34 *64:11 2.58616e-05
30 *280:A *284:A1 4.13313e-05
31 *282:B *282:A 0.000768111
32 *287:D *282:A 0.0001132
33 *20:11 *284:A1 0.000291452
34 *23:10 *279:A3 5.50734e-05
35 *23:10 *284:A1 1.79484e-05
36 *24:5 *282:A 0.000136803
37 *32:14 *282:A 7.60577e-05
*RES
1 *288:Q *35:5 12.191 
2 *35:5 *35:8 10.4845 
3 *35:8 *276:B 34.3025 
4 *35:8 *282:A 31.3277 
5 *35:5 *35:34 10.2148 
6 *35:34 *279:A3 19.3535 
7 *35:34 *284:A1 39.4898 
*END

*D_NET *36 0.00613577
*CONN
*I *274:B I *D sky130_fd_sc_hd__or4_1
*I *307:Q O *D sky130_fd_sc_hd__dfxtp_1
*CAP
1 *274:B 0.000959585
2 *307:Q 0.000354805
3 *36:7 0.00131439
4 *274:B *270:A 1.4106e-05
5 *274:B *276:A 0.00078368
6 *274:B *284:B1 0.000807576
7 *274:B *44:19 7.40248e-05
8 *36:7 *284:B1 6.08467e-05
9 *36:7 *314:D 0.000188037
10 *36:7 *52:316 8.32144e-05
11 *271:B *274:B 0.000265041
12 *276:C *274:B 0.000213441
13 *284:A2 *36:7 1.71281e-05
14 *18:44 *274:B 1.94614e-05
15 *26:13 *274:B 0.000980436
*RES
1 *307:Q *36:7 19.464 
2 *36:7 *274:B 48.5605 
*END

*D_NET *37 0.00713502
*CONN
*I *274:A I *D sky130_fd_sc_hd__or4_1
*I *308:Q O *D sky130_fd_sc_hd__dfxtp_1
*CAP
1 *274:A 0.000976242
2 *308:Q 0.000948112
3 *37:13 0.00192435
4 *274:A *270:A 2.29454e-05
5 *274:A *270:B 6.49691e-05
6 *274:A *270:D 0.000307577
7 *274:A *38:11 0.00046048
8 *274:A *39:9 2.57847e-05
9 *274:A *54:13 0.000359012
10 *37:13 *270:B 0.000112228
11 *37:13 *291:D 6.4831e-05
12 *37:13 *299:D 2.95642e-05
13 *37:13 *52:33 0.000203756
14 *37:13 *66:10 0.00127898
15 *271:B *274:A 6.78364e-06
16 *29:17 *37:13 0.000154145
17 *32:14 *37:13 2.69435e-05
18 *34:10 *37:13 0.000168313
*RES
1 *308:Q *37:13 48.6912 
2 *37:13 *274:A 26.8277 
*END

*D_NET *38 0.00507963
*CONN
*I *274:D I *D sky130_fd_sc_hd__or4_1
*I *309:Q O *D sky130_fd_sc_hd__dfxtp_1
*CAP
1 *274:D 0
2 *309:Q 0.00124287
3 *38:11 0.00124287
4 *38:11 *270:A 0.000362316
5 *38:11 *270:B 6.27782e-05
6 *38:11 *276:A 0.000136874
7 *38:11 *294:D 0.000794139
8 *38:11 *304:D 0.000608878
9 *274:A *38:11 0.00046048
10 *285:B *38:11 4.89288e-05
11 *5:9 *38:11 0.0001195
*RES
1 *309:Q *38:11 46.0614 
2 *38:11 *274:D 9.24915 
*END

*D_NET *39 0.00389915
*CONN
*I *274:C I *D sky130_fd_sc_hd__or4_1
*I *310:Q O *D sky130_fd_sc_hd__dfxtp_1
*CAP
1 *274:C 0
2 *310:Q 0.000715288
3 *39:9 0.000715288
4 *39:9 *277:A 0.000320102
5 *39:9 *43:10 5.71944e-05
6 *39:9 *67:10 3.3179e-05
7 *271:A *39:9 0.000611654
8 *271:B *39:9 0.000305874
9 *274:A *39:9 2.57847e-05
10 *13:8 *39:9 0.000985706
11 *20:11 *39:9 3.83296e-05
12 *23:10 *39:9 9.07502e-05
*RES
1 *310:Q *39:9 47.2469 
2 *39:9 *274:C 9.24915 
*END

*D_NET *40 0.000888727
*CONN
*I *270:D I *D sky130_fd_sc_hd__or4_1
*I *311:Q O *D sky130_fd_sc_hd__dfxtp_1
*CAP
1 *270:D 0.000122279
2 *311:Q 0.000122279
3 *270:D *270:B 0.000203549
4 *270:D *306:CLK 6.36477e-05
5 *270:D *311:CLK 3.37843e-05
6 *274:A *270:D 0.000307577
7 *8:11 *270:D 3.56119e-05
*RES
1 *311:Q *270:D 32.8267 
*END

*D_NET *41 0.00633108
*CONN
*I *270:C I *D sky130_fd_sc_hd__or4_1
*I *312:Q O *D sky130_fd_sc_hd__dfxtp_1
*CAP
1 *270:C 0
2 *312:Q 0.000135685
3 *41:15 0.00126342
4 *41:7 0.0013991
5 *41:7 *59:15 0.000215127
6 *41:15 *270:B 0.00028292
7 *41:15 *287:CLK 0.000109951
8 *41:15 *47:13 1.94224e-05
9 *41:15 *52:109 0
10 *41:15 *52:137 0.000185159
11 *6:13 *41:15 0.0011498
12 *7:11 *41:15 0.000612667
13 *8:11 *41:15 0.000828161
14 *27:14 *41:15 0.000129659
*RES
1 *312:Q *41:7 16.1364 
2 *41:7 *41:15 46.0092 
3 *41:15 *270:C 9.24915 
*END

*D_NET *42 0.00617678
*CONN
*I *270:B I *D sky130_fd_sc_hd__or4_1
*I *313:Q O *D sky130_fd_sc_hd__dfxtp_1
*CAP
1 *270:B 0.00033978
2 *313:Q 0.00128915
3 *42:10 0.00162893
4 *270:B *291:D 4.24629e-05
5 *270:B *306:CLK 6.36477e-05
6 *270:B *54:13 0.000357087
7 *42:10 *295:D 0.000311261
8 *42:10 *299:D 5.9275e-05
9 *42:10 *60:6 0.00134717
10 *270:D *270:B 0.000203549
11 *274:A *270:B 6.49691e-05
12 *32:14 *42:10 1.15766e-05
13 *37:13 *270:B 0.000112228
14 *38:11 *270:B 6.27782e-05
15 *41:15 *270:B 0.00028292
*RES
1 *313:Q *42:10 49.8806 
2 *42:10 *270:B 23.4036 
*END

*D_NET *43 0.00548789
*CONN
*I *270:A I *D sky130_fd_sc_hd__or4_1
*I *314:Q O *D sky130_fd_sc_hd__dfxtp_1
*CAP
1 *270:A 0.000362814
2 *314:Q 0.000784601
3 *43:10 0.00114741
4 *43:10 *284:B1 6.08467e-05
5 *43:10 *303:D 0.000164842
6 *43:10 *45:10 0.000230501
7 *43:10 *67:10 0.00141148
8 *271:B *270:A 0.000134249
9 *274:A *270:A 2.29454e-05
10 *274:B *270:A 1.4106e-05
11 *276:B *270:A 0.000143633
12 *276:B *43:10 0.000244293
13 *278:B *43:10 0.000119349
14 *280:B *43:10 0.000134976
15 *5:9 *270:A 3.23874e-05
16 *35:8 *43:10 5.99305e-05
17 *38:11 *270:A 0.000362316
18 *39:9 *43:10 5.71944e-05
*RES
1 *314:Q *43:10 49.0417 
2 *43:10 *270:A 28.6689 
*END

*D_NET *44 0.00941155
*CONN
*I *284:B1 I *D sky130_fd_sc_hd__a21oi_1
*I *279:A2 I *D sky130_fd_sc_hd__a31o_1
*I *276:A I *D sky130_fd_sc_hd__and3_1
*I *289:Q O *D sky130_fd_sc_hd__dfxtp_1
*CAP
1 *284:B1 0.000814255
2 *279:A2 0.000423862
3 *276:A 0.00077711
4 *289:Q 0.000112932
5 *44:19 0.00127228
6 *44:7 0.000924203
7 *279:A2 *279:A1 6.27085e-05
8 *279:A2 *290:CLK 0.000154145
9 *279:A2 *45:10 6.1685e-05
10 *284:B1 *314:D 0.000108474
11 *284:B1 *75:11 0.000362087
12 *44:7 *290:CLK 6.77815e-05
13 *274:B *276:A 0.00078368
14 *274:B *284:B1 0.000807576
15 *274:B *44:19 7.40248e-05
16 *276:B *276:A 7.94337e-06
17 *276:C *276:A 0.000138137
18 *279:A3 *279:A2 0.000264612
19 *279:B1 *279:A2 7.01935e-06
20 *284:A1 *284:B1 6.08467e-05
21 *284:A2 *284:B1 0.000805937
22 *290:D *279:A2 0.000100212
23 *5:9 *276:A 3.13024e-05
24 *5:9 *284:B1 3.57378e-06
25 *5:9 *44:19 1.92296e-05
26 *11:7 *279:A2 0.000263469
27 *18:10 *276:A 1.15862e-05
28 *20:11 *279:A2 0.000132172
29 *23:7 *284:B1 1.03403e-05
30 *31:17 *284:B1 0.000105183
31 *32:14 *276:A 0.000384617
32 *36:7 *284:B1 6.08467e-05
33 *38:11 *276:A 0.000136874
34 *43:10 *284:B1 6.08467e-05
*RES
1 *289:Q *44:7 15.5817 
2 *44:7 *276:A 36.4057 
3 *44:7 *44:19 1.41674 
4 *44:19 *279:A2 28.3376 
5 *44:19 *284:B1 40.406 
*END

*D_NET *45 0.00582028
*CONN
*I *279:A1 I *D sky130_fd_sc_hd__a31o_1
*I *277:A I *D sky130_fd_sc_hd__or4_1
*I *286:A1 I *D sky130_fd_sc_hd__o21ba_1
*I *290:Q O *D sky130_fd_sc_hd__dfxtp_1
*CAP
1 *279:A1 0.000227065
2 *277:A 0.000367983
3 *286:A1 0.000437715
4 *290:Q 0
5 *45:10 0.00119242
6 *45:4 0.000613789
7 *277:A *303:D 5.04829e-06
8 *286:A1 *303:D 0.00043384
9 *279:A2 *279:A1 6.27085e-05
10 *279:A2 *45:10 6.1685e-05
11 *279:A3 *279:A1 0.000267394
12 *279:B1 *279:A1 6.24474e-06
13 *280:A *277:A 7.26748e-05
14 *284:A1 *277:A 0.000187287