*SPEF "ieee 1481-1999"
*DESIGN "shiftregister"
*DATE "11:11:11 Fri 11 11, 1111"
*VENDOR "OpenRCX"
*PROGRAM "Parallel Extraction"
*VERSION "1.0"
*DESIGN_FLOW "NAME_SCOPE LOCAL" "PIN_CAP NONE"
*DIVIDER /
*DELIMITER :
*BUS_DELIMITER []
*T_UNIT 1 NS
*C_UNIT 1 PF
*R_UNIT 1 OHM
*L_UNIT 1 HENRY

*NAME_MAP
*3 clk
*4 load
*5 r_load[0]
*6 r_load[10]
*7 r_load[11]
*8 r_load[12]
*9 r_load[13]
*10 r_load[14]
*11 r_load[15]
*12 r_load[16]
*13 r_load[17]
*14 r_load[18]
*15 r_load[19]
*16 r_load[1]
*17 r_load[20]
*18 r_load[21]
*19 r_load[22]
*20 r_load[23]
*21 r_load[24]
*22 r_load[25]
*23 r_load[26]
*24 r_load[27]
*25 r_load[28]
*26 r_load[29]
*27 r_load[2]
*28 r_load[30]
*29 r_load[31]
*30 r_load[3]
*31 r_load[4]
*32 r_load[5]
*33 r_load[6]
*34 r_load[7]
*35 r_load[8]
*36 r_load[9]
*37 r_read[0]
*38 r_read[10]
*39 r_read[11]
*40 r_read[12]
*41 r_read[13]
*42 r_read[14]
*43 r_read[15]
*44 r_read[16]
*45 r_read[17]
*46 r_read[18]
*47 r_read[19]
*48 r_read[1]
*49 r_read[20]
*50 r_read[21]
*51 r_read[22]
*52 r_read[23]
*53 r_read[24]
*54 r_read[25]
*55 r_read[26]
*56 r_read[27]
*57 r_read[28]
*58 r_read[29]
*59 r_read[2]
*60 r_read[30]
*61 r_read[31]
*62 r_read[3]
*63 r_read[4]
*64 r_read[5]
*65 r_read[6]
*66 r_read[7]
*67 r_read[8]
*68 r_read[9]
*69 read
*70 reset
*71 s_in
*72 s_out
*73 _000_
*74 _001_
*75 _002_
*76 _003_
*77 _004_
*78 _005_
*79 _006_
*80 _007_
*81 _008_
*82 _009_
*83 _010_
*84 _011_
*85 _012_
*86 _013_
*87 _014_
*88 _015_
*89 _016_
*90 _017_
*91 _018_
*92 _019_
*93 _020_
*94 _021_
*95 _022_
*96 _023_
*97 _024_
*98 _025_
*99 _026_
*100 _027_
*101 _028_
*102 _029_
*103 _030_
*104 _031_
*105 _032_
*106 _033_
*107 _034_
*108 _035_
*109 _036_
*110 _037_
*111 _038_
*112 _039_
*113 _040_
*114 _041_
*115 _042_
*116 _043_
*117 _044_
*118 _045_
*119 _046_
*120 _047_
*121 _048_
*122 _049_
*123 _050_
*124 _051_
*125 _052_
*126 _053_
*127 _054_
*128 _055_
*129 _056_
*130 _057_
*131 _058_
*132 _059_
*133 _060_
*134 _061_
*135 _062_
*136 _063_
*137 _064_
*138 _065_
*139 _066_
*140 _067_
*141 _068_
*142 _069_
*143 _070_
*144 _071_
*145 _072_
*146 _073_
*147 _074_
*148 _075_
*149 _076_
*150 _077_
*151 _078_
*152 _079_
*153 _080_
*154 _081_
*155 _082_
*156 _083_
*157 _084_
*158 _085_
*159 _086_
*160 _087_
*161 _088_
*162 _089_
*163 _090_
*164 _091_
*165 _092_
*166 _093_
*167 _094_
*168 _095_
*169 _096_
*170 _097_
*171 _098_
*172 _099_
*173 _100_
*174 _101_
*175 _102_
*176 _103_
*177 _104_
*178 _105_
*179 _106_
*180 _107_
*181 _108_
*182 _109_
*183 _110_
*184 _111_
*185 _112_
*186 _113_
*187 _114_
*188 _115_
*189 _116_
*190 _117_
*191 _118_
*192 _119_
*193 _120_
*194 _121_
*195 _122_
*196 _123_
*197 _124_
*198 _125_
*199 _126_
*200 _127_
*201 _128_
*202 _129_
*203 _130_
*204 _131_
*205 _132_
*206 _133_
*207 _134_
*208 _135_
*209 _136_
*210 _137_
*211 _138_
*212 _139_
*213 _140_
*214 _141_
*215 _142_
*216 _143_
*217 _144_
*218 _145_
*219 _146_
*220 _147_
*221 _148_
*222 _149_
*223 _150_
*224 _151_
*225 _152_
*226 _153_
*227 _154_
*228 _155_
*229 _156_
*230 _157_
*231 _158_
*232 _159_
*233 _160_
*234 _161_
*235 _162_
*236 _163_
*237 _164_
*238 _165_
*239 _166_
*240 _167_
*241 _168_
*242 _169_
*243 _170_
*244 _171_
*245 _172_
*246 _173_
*247 _174_
*248 _175_
*249 _176_
*250 _177_
*251 _178_
*252 _179_
*253 _180_
*254 _181_
*255 _182_
*256 _183_
*257 _184_
*258 _185_
*259 _186_
*260 _187_
*261 _188_
*262 _189_
*263 _190_
*264 _191_
*265 _192_
*266 _193_
*267 _194_
*268 _195_
*269 _196_
*270 _197_
*271 _198_
*272 _199_
*273 _200_
*274 _201_
*275 _202_
*276 _203_
*277 _204_
*278 _205_
*279 _206_
*280 _207_
*281 _208_
*282 _209_
*283 _210_
*284 _211_
*285 _212_
*286 _213_
*287 _214_
*288 _215_
*289 _216_
*290 _217_
*291 _218_
*292 _219_
*293 _220_
*294 clknet_0_clk
*295 clknet_1_0_0_clk
*296 clknet_1_1_0_clk
*297 clknet_2_0_0_clk
*298 clknet_2_1_0_clk
*299 clknet_2_2_0_clk
*300 clknet_2_3_0_clk
*301 clknet_3_0_0_clk
*302 clknet_3_1_0_clk
*303 clknet_3_2_0_clk
*304 clknet_3_3_0_clk
*305 clknet_3_4_0_clk
*306 clknet_3_5_0_clk
*307 clknet_3_6_0_clk
*308 clknet_3_7_0_clk
*309 net1
*310 net10
*311 net11
*312 net12
*313 net13
*314 net14
*315 net15
*316 net16
*317 net17
*318 net18
*319 net19
*320 net2
*321 net20
*322 net21
*323 net22
*324 net23
*325 net24
*326 net25
*327 net26
*328 net27
*329 net28
*330 net29
*331 net3
*332 net30
*333 net31
*334 net32
*335 net33
*336 net34
*337 net35
*338 net36
*339 net37
*340 net38
*341 net39
*342 net4
*343 net40
*344 net41
*345 net42
*346 net43
*347 net44
*348 net45
*349 net46
*350 net47
*351 net48
*352 net49
*353 net5
*354 net50
*355 net51
*356 net52
*357 net53
*358 net54
*359 net55
*360 net56
*361 net57
*362 net58
*363 net59
*364 net6
*365 net60
*366 net61
*367 net62
*368 net63
*369 net64
*370 net65
*371 net66
*372 net67
*373 net68
*374 net69
*375 net7
*376 net8
*377 net9
*378 r_reg\[10\]
*379 r_reg\[11\]
*380 r_reg\[12\]
*381 r_reg\[13\]
*382 r_reg\[14\]
*383 r_reg\[15\]
*384 r_reg\[16\]
*385 r_reg\[17\]
*386 r_reg\[18\]
*387 r_reg\[19\]
*388 r_reg\[1\]
*389 r_reg\[20\]
*390 r_reg\[21\]
*391 r_reg\[22\]
*392 r_reg\[23\]
*393 r_reg\[24\]
*394 r_reg\[25\]
*395 r_reg\[26\]
*396 r_reg\[27\]
*397 r_reg\[28\]
*398 r_reg\[29\]
*399 r_reg\[2\]
*400 r_reg\[30\]
*401 r_reg\[31\]
*402 r_reg\[3\]
*403 r_reg\[4\]
*404 r_reg\[5\]
*405 r_reg\[6\]
*406 r_reg\[7\]
*407 r_reg\[8\]
*408 r_reg\[9\]
*409 ANTENNA_0
*410 ANTENNA_1
*411 FILLER_0_100
*412 FILLER_0_107
*413 FILLER_0_111
*414 FILLER_0_113
*415 FILLER_0_119
*416 FILLER_0_127
*417 FILLER_0_13
*418 FILLER_0_132
*419 FILLER_0_151
*420 FILLER_0_159
*421 FILLER_0_167
*422 FILLER_0_169
*423 FILLER_0_175
*424 FILLER_0_183
*425 FILLER_0_20
*426 FILLER_0_32
*427 FILLER_0_44
*428 FILLER_0_48
*429 FILLER_0_52
*430 FILLER_0_57
*431 FILLER_0_63
*432 FILLER_0_74
*433 FILLER_0_82
*434 FILLER_0_85
*435 FILLER_0_91
*436 FILLER_10_107
*437 FILLER_10_115
*438 FILLER_10_119
*439 FILLER_10_123
*440 FILLER_10_129
*441 FILLER_10_134
*442 FILLER_10_141
*443 FILLER_10_148
*444 FILLER_10_155
*445 FILLER_10_168
*446 FILLER_10_175
*447 FILLER_10_183
*448 FILLER_10_21
*449 FILLER_10_27
*450 FILLER_10_3
*451 FILLER_10_32
*452 FILLER_10_38
*453 FILLER_10_42
*454 FILLER_10_62
*455 FILLER_10_79
*456 FILLER_10_8
*457 FILLER_10_83
*458 FILLER_10_85
*459 FILLER_11_104
*460 FILLER_11_108
*461 FILLER_11_113
*462 FILLER_11_137
*463 FILLER_11_145
*464 FILLER_11_15
*465 FILLER_11_162
*466 FILLER_11_172
*467 FILLER_11_179
*468 FILLER_11_3
*469 FILLER_11_39
*470 FILLER_11_47
*471 FILLER_11_52
*472 FILLER_11_61
*473 FILLER_11_7
*474 FILLER_11_76
*475 FILLER_11_84
*476 FILLER_11_92
*477 FILLER_11_96
*478 FILLER_12_102
*479 FILLER_12_109
*480 FILLER_12_117
*481 FILLER_12_130
*482 FILLER_12_138
*483 FILLER_12_150
*484 FILLER_12_176
*485 FILLER_12_183
*486 FILLER_12_20
*487 FILLER_12_29
*488 FILLER_12_3
*489 FILLER_12_34
*490 FILLER_12_47
*491 FILLER_12_60
*492 FILLER_12_73
*493 FILLER_12_80
*494 FILLER_12_89
*495 FILLER_13_108
*496 FILLER_13_117
*497 FILLER_13_130
*498 FILLER_13_14
*499 FILLER_13_154
*500 FILLER_13_162
*501 FILLER_13_169
*502 FILLER_13_182
*503 FILLER_13_186
*504 FILLER_13_21
*505 FILLER_13_29
*506 FILLER_13_46
*507 FILLER_13_54
*508 FILLER_13_57
*509 FILLER_13_7
*510 FILLER_13_80
*511 FILLER_13_88
*512 FILLER_14_121
*513 FILLER_14_129
*514 FILLER_14_135
*515 FILLER_14_139
*516 FILLER_14_145
*517 FILLER_14_162
*518 FILLER_14_166
*519 FILLER_14_183
*520 FILLER_14_20
*521 FILLER_14_29
*522 FILLER_14_3
*523 FILLER_14_35
*524 FILLER_14_48
*525 FILLER_14_68
*526 FILLER_14_80
*527 FILLER_14_91
*528 FILLER_14_99
*529 FILLER_15_106
*530 FILLER_15_113
*531 FILLER_15_123
*532 FILLER_15_129
*533 FILLER_15_134
*534 FILLER_15_142
*535 FILLER_15_164
*536 FILLER_15_169
*537 FILLER_15_175
*538 FILLER_15_183
*539 FILLER_15_22
*540 FILLER_15_3
*541 FILLER_15_35
*542 FILLER_15_50
*543 FILLER_15_66
*544 FILLER_15_74
*545 FILLER_15_82
*546 FILLER_15_9
*547 FILLER_16_110
*548 FILLER_16_118
*549 FILLER_16_126
*550 FILLER_16_131
*551 FILLER_16_139
*552 FILLER_16_141
*553 FILLER_16_165
*554 FILLER_16_178
*555 FILLER_16_186
*556 FILLER_16_24
*557 FILLER_16_3
*558 FILLER_16_49
*559 FILLER_16_62
*560 FILLER_16_68
*561 FILLER_16_78
*562 FILLER_16_85
*563 FILLER_16_90
*564 FILLER_17_108
*565 FILLER_17_11
*566 FILLER_17_113
*567 FILLER_17_134
*568 FILLER_17_147
*569 FILLER_17_160
*570 FILLER_17_178
*571 FILLER_17_186
*572 FILLER_17_24
*573 FILLER_17_3
*574 FILLER_17_31
*575 FILLER_17_39
*576 FILLER_17_52
*577 FILLER_17_57
*578 FILLER_17_7
*579 FILLER_17_72
*580 FILLER_17_96
*581 FILLER_18_110
*582 FILLER_18_118
*583 FILLER_18_122
*584 FILLER_18_13
*585 FILLER_18_132
*586 FILLER_18_141
*587 FILLER_18_153
*588 FILLER_18_161
*589 FILLER_18_17
*590 FILLER_18_178
*591 FILLER_18_186
*592 FILLER_18_24
*593 FILLER_18_29
*594 FILLER_18_33
*595 FILLER_18_58
*596 FILLER_18_66
*597 FILLER_18_7
*598 FILLER_18_77
*599 FILLER_18_83
*600 FILLER_18_85
*601 FILLER_18_93
*602 FILLER_19_105
*603 FILLER_19_111
*604 FILLER_19_113
*605 FILLER_19_128
*606 FILLER_19_141
*607 FILLER_19_154
*608 FILLER_19_161
*609 FILLER_19_167
*610 FILLER_19_172
*611 FILLER_19_179
*612 FILLER_19_19
*613 FILLER_19_32
*614 FILLER_19_40
*615 FILLER_19_52
*616 FILLER_19_57
*617 FILLER_19_6
*618 FILLER_19_83
*619 FILLER_19_92
*620 FILLER_1_108
*621 FILLER_1_113
*622 FILLER_1_125
*623 FILLER_1_13
*624 FILLER_1_137
*625 FILLER_1_149
*626 FILLER_1_157
*627 FILLER_1_164
*628 FILLER_1_169
*629 FILLER_1_175
*630 FILLER_1_183
*631 FILLER_1_20
*632 FILLER_1_27
*633 FILLER_1_39
*634 FILLER_1_51
*635 FILLER_1_55
*636 FILLER_1_57
*637 FILLER_1_61
*638 FILLER_1_65
*639 FILLER_1_85
*640 FILLER_1_91
*641 FILLER_20_107
*642 FILLER_20_131
*643 FILLER_20_139
*644 FILLER_20_161
*645 FILLER_20_174
*646 FILLER_20_181
*647 FILLER_20_23
*648 FILLER_20_27
*649 FILLER_20_49
*650 FILLER_20_60
*651 FILLER_20_73
*652 FILLER_20_80
*653 FILLER_20_85
*654 FILLER_21_104
*655 FILLER_21_113
*656 FILLER_21_118
*657 FILLER_21_131
*658 FILLER_21_139
*659 FILLER_21_14
*660 FILLER_21_147
*661 FILLER_21_158
*662 FILLER_21_166
*663 FILLER_21_172
*664 FILLER_21_178
*665 FILLER_21_18
*666 FILLER_21_183
*667 FILLER_21_22
*668 FILLER_21_35
*669 FILLER_21_52
*670 FILLER_21_61
*671 FILLER_21_7
*672 FILLER_21_74
*673 FILLER_21_87
*674 FILLER_21_94
*675 FILLER_22_109
*676 FILLER_22_115
*677 FILLER_22_120
*678 FILLER_22_129
*679 FILLER_22_136
*680 FILLER_22_141
*681 FILLER_22_145
*682 FILLER_22_162
*683 FILLER_22_170
*684 FILLER_22_175
*685 FILLER_22_182
*686 FILLER_22_186
*687 FILLER_22_19
*688 FILLER_22_27
*689 FILLER_22_29
*690 FILLER_22_39
*691 FILLER_22_59
*692 FILLER_22_6
*693 FILLER_22_67
*694 FILLER_22_77
*695 FILLER_22_83
*696 FILLER_22_85
*697 FILLER_23_107
*698 FILLER_23_111
*699 FILLER_23_116
*700 FILLER_23_124
*701 FILLER_23_145
*702 FILLER_23_158
*703 FILLER_23_166
*704 FILLER_23_172
*705 FILLER_23_178
*706 FILLER_23_183
*707 FILLER_23_19
*708 FILLER_23_41
*709 FILLER_23_49
*710 FILLER_23_55
*711 FILLER_23_57
*712 FILLER_23_72
*713 FILLER_23_85
*714 FILLER_23_98
*715 FILLER_24_105
*716 FILLER_24_125
*717 FILLER_24_132
*718 FILLER_24_150
*719 FILLER_24_163
*720 FILLER_24_183
*721 FILLER_24_24
*722 FILLER_24_3
*723 FILLER_24_32
*724 FILLER_24_39
*725 FILLER_24_59
*726 FILLER_24_7
*727 FILLER_24_72
*728 FILLER_24_76
*729 FILLER_24_80
*730 FILLER_25_108
*731 FILLER_25_113
*732 FILLER_25_119
*733 FILLER_25_123
*734 FILLER_25_133
*735 FILLER_25_15
*736 FILLER_25_150
*737 FILLER_25_158
*738 FILLER_25_164
*739 FILLER_25_169
*740 FILLER_25_179
*741 FILLER_25_26
*742 FILLER_25_38
*743 FILLER_25_47
*744 FILLER_25_55
*745 FILLER_25_57
*746 FILLER_25_7
*747 FILLER_25_80
*748 FILLER_25_87
*749 FILLER_25_91
*750 FILLER_25_95
*751 FILLER_26_101
*752 FILLER_26_105
*753 FILLER_26_118
*754 FILLER_26_133
*755 FILLER_26_139
*756 FILLER_26_161
*757 FILLER_26_18
*758 FILLER_26_181
*759 FILLER_26_26
*760 FILLER_26_29
*761 FILLER_26_41
*762 FILLER_26_53
*763 FILLER_26_58
*764 FILLER_26_6
*765 FILLER_26_65
*766 FILLER_26_78
*767 FILLER_26_88
*768 FILLER_26_95
*769 FILLER_27_103
*770 FILLER_27_108
*771 FILLER_27_113
*772 FILLER_27_139
*773 FILLER_27_146
*774 FILLER_27_159
*775 FILLER_27_167
*776 FILLER_27_178
*777 FILLER_27_186
*778 FILLER_27_19
*779 FILLER_27_31
*780 FILLER_27_43
*781 FILLER_27_55
*782 FILLER_27_57
*783 FILLER_27_7
*784 FILLER_27_77
*785 FILLER_27_84
*786 FILLER_27_91
*787 FILLER_28_115
*788 FILLER_28_132
*789 FILLER_28_141
*790 FILLER_28_15
*791 FILLER_28_163
*792 FILLER_28_183
*793 FILLER_28_27
*794 FILLER_28_29
*795 FILLER_28_3
*796 FILLER_28_41
*797 FILLER_28_53
*798 FILLER_28_65
*799 FILLER_28_77
*800 FILLER_28_83
*801 FILLER_28_85
*802 FILLER_28_97
*803 FILLER_29_105
*804 FILLER_29_111
*805 FILLER_29_113
*806 FILLER_29_124
*807 FILLER_29_135
*808 FILLER_29_14
*809 FILLER_29_144
*810 FILLER_29_151
*811 FILLER_29_164
*812 FILLER_29_169
*813 FILLER_29_175
*814 FILLER_29_183
*815 FILLER_29_26
*816 FILLER_29_38
*817 FILLER_29_50
*818 FILLER_29_57
*819 FILLER_29_69
*820 FILLER_29_7
*821 FILLER_29_81
*822 FILLER_29_93
*823 FILLER_2_103
*824 FILLER_2_116
*825 FILLER_2_128
*826 FILLER_2_141
*827 FILLER_2_153
*828 FILLER_2_165
*829 FILLER_2_171
*830 FILLER_2_175
*831 FILLER_2_18
*832 FILLER_2_183
*833 FILLER_2_26
*834 FILLER_2_29
*835 FILLER_2_41
*836 FILLER_2_49
*837 FILLER_2_55
*838 FILLER_2_6
*839 FILLER_2_67
*840 FILLER_2_80
*841 FILLER_2_85
*842 FILLER_2_90
*843 FILLER_30_109
*844 FILLER_30_121
*845 FILLER_30_13
*846 FILLER_30_136
*847 FILLER_30_141
*848 FILLER_30_150
*849 FILLER_30_161
*850 FILLER_30_169
*851 FILLER_30_183
*852 FILLER_30_21
*853 FILLER_30_27
*854 FILLER_30_29
*855 FILLER_30_41
*856 FILLER_30_53
*857 FILLER_30_65
*858 FILLER_30_77
*859 FILLER_30_83
*860 FILLER_30_85
*861 FILLER_30_97
*862 FILLER_31_105
*863 FILLER_31_111
*864 FILLER_31_113
*865 FILLER_31_118
*866 FILLER_31_125
*867 FILLER_31_13
*868 FILLER_31_132
*869 FILLER_31_144
*870 FILLER_31_154
*871 FILLER_31_164
*872 FILLER_31_169
*873 FILLER_31_183
*874 FILLER_31_21
*875 FILLER_31_27
*876 FILLER_31_33
*877 FILLER_31_37
*878 FILLER_31_41
*879 FILLER_31_53
*880 FILLER_31_61
*881 FILLER_31_68
*882 FILLER_31_72
*883 FILLER_31_77
*884 FILLER_31_83
*885 FILLER_31_85
*886 FILLER_31_90
*887 FILLER_31_98
*888 FILLER_3_103
*889 FILLER_3_108
*890 FILLER_3_129
*891 FILLER_3_141
*892 FILLER_3_15
*893 FILLER_3_153
*894 FILLER_3_165
*895 FILLER_3_169
*896 FILLER_3_177
*897 FILLER_3_183
*898 FILLER_3_27
*899 FILLER_3_3
*900 FILLER_3_31
*901 FILLER_3_52
*902 FILLER_3_60
*903 FILLER_3_67
*904 FILLER_3_95
*905 FILLER_4_115
*906 FILLER_4_127
*907 FILLER_4_139
*908 FILLER_4_141
*909 FILLER_4_15
*910 FILLER_4_153
*911 FILLER_4_165
*912 FILLER_4_182
*913 FILLER_4_186
*914 FILLER_4_27
*915 FILLER_4_29
*916 FILLER_4_3
*917 FILLER_4_33
*918 FILLER_4_43
*919 FILLER_4_67
*920 FILLER_4_80
*921 FILLER_4_88
*922 FILLER_4_94
*923 FILLER_5_102
*924 FILLER_5_110
*925 FILLER_5_116
*926 FILLER_5_123
*927 FILLER_5_147
*928 FILLER_5_159
*929 FILLER_5_164
*930 FILLER_5_178
*931 FILLER_5_186
*932 FILLER_5_19
*933 FILLER_5_40
*934 FILLER_5_47
*935 FILLER_5_55
*936 FILLER_5_66
*937 FILLER_5_7
*938 FILLER_5_79
*939 FILLER_5_92
*940 FILLER_5_98
*941 FILLER_6_105
*942 FILLER_6_112
*943 FILLER_6_119
*944 FILLER_6_126
*945 FILLER_6_132
*946 FILLER_6_136
*947 FILLER_6_150
*948 FILLER_6_158
*949 FILLER_6_163
*950 FILLER_6_18
*951 FILLER_6_183
*952 FILLER_6_26
*953 FILLER_6_38
*954 FILLER_6_51
*955 FILLER_6_58
*956 FILLER_6_6
*957 FILLER_6_63
*958 FILLER_6_74
*959 FILLER_6_82
*960 FILLER_7_108
*961 FILLER_7_113
*962 FILLER_7_121
*963 FILLER_7_128
*964 FILLER_7_13
*965 FILLER_7_140
*966 FILLER_7_152
*967 FILLER_7_156
*968 FILLER_7_163
*969 FILLER_7_167
*970 FILLER_7_169
*971 FILLER_7_180
*972 FILLER_7_186
*973 FILLER_7_24
*974 FILLER_7_31
*975 FILLER_7_44
*976 FILLER_7_48
*977 FILLER_7_52
*978 FILLER_7_57
*979 FILLER_7_6
*980 FILLER_7_65
*981 FILLER_7_73
*982 FILLER_7_84
*983 FILLER_7_92
*984 FILLER_7_98
*985 FILLER_8_101
*986 FILLER_8_114
*987 FILLER_8_118
*988 FILLER_8_123
*989 FILLER_8_136
*990 FILLER_8_144
*991 FILLER_8_170
*992 FILLER_8_177
*993 FILLER_8_185
*994 FILLER_8_19
*995 FILLER_8_27
*996 FILLER_8_29
*997 FILLER_8_39
*998 FILLER_8_46
*999 FILLER_8_58
*1000 FILLER_8_6
*1001 FILLER_8_65
*1002 FILLER_8_80
*1003 FILLER_8_88
*1004 FILLER_9_108
*1005 FILLER_9_113
*1006 FILLER_9_120
*1007 FILLER_9_144
*1008 FILLER_9_152
*1009 FILLER_9_162
*1010 FILLER_9_178
*1011 FILLER_9_186
*1012 FILLER_9_19
*1013 FILLER_9_47
*1014 FILLER_9_55
*1015 FILLER_9_57
*1016 FILLER_9_62
*1017 FILLER_9_86
*1018 FILLER_9_93
*1019 FILLER_9_97
*1020 PHY_0
*1021 PHY_1
*1022 PHY_10
*1023 PHY_11
*1024 PHY_12
*1025 PHY_13
*1026 PHY_14
*1027 PHY_15
*1028 PHY_16
*1029 PHY_17
*1030 PHY_18
*1031 PHY_19
*1032 PHY_2
*1033 PHY_20
*1034 PHY_21
*1035 PHY_22
*1036 PHY_23
*1037 PHY_24
*1038 PHY_25
*1039 PHY_26
*1040 PHY_27
*1041 PHY_28
*1042 PHY_29
*1043 PHY_3
*1044 PHY_30
*1045 PHY_31
*1046 PHY_32
*1047 PHY_33
*1048 PHY_34
*1049 PHY_35
*1050 PHY_36
*1051 PHY_37
*1052 PHY_38
*1053 PHY_39
*1054 PHY_4
*1055 PHY_40
*1056 PHY_41
*1057 PHY_42
*1058 PHY_43
*1059 PHY_44
*1060 PHY_45
*1061 PHY_46
*1062 PHY_47
*1063 PHY_48
*1064 PHY_49
*1065 PHY_5
*1066 PHY_50
*1067 PHY_51
*1068 PHY_52
*1069 PHY_53
*1070 PHY_54
*1071 PHY_55
*1072 PHY_56
*1073 PHY_57
*1074 PHY_58
*1075 PHY_59
*1076 PHY_6
*1077 PHY_60
*1078 PHY_61
*1079 PHY_62
*1080 PHY_63
*1081 PHY_7
*1082 PHY_8
*1083 PHY_9
*1084 TAP_100
*1085 TAP_101
*1086 TAP_102
*1087 TAP_103
*1088 TAP_104
*1089 TAP_105
*1090 TAP_106
*1091 TAP_107
*1092 TAP_108
*1093 TAP_109
*1094 TAP_110
*1095 TAP_111
*1096 TAP_112
*1097 TAP_113
*1098 TAP_114
*1099 TAP_115
*1100 TAP_116
*1101 TAP_117
*1102 TAP_118
*1103 TAP_119
*1104 TAP_120
*1105 TAP_121
*1106 TAP_122
*1107 TAP_123
*1108 TAP_124
*1109 TAP_125
*1110 TAP_126
*1111 TAP_127
*1112 TAP_128
*1113 TAP_129
*1114 TAP_130
*1115 TAP_131
*1116 TAP_132
*1117 TAP_133
*1118 TAP_134
*1119 TAP_135
*1120 TAP_136
*1121 TAP_137
*1122 TAP_138
*1123 TAP_139
*1124 TAP_140
*1125 TAP_141
*1126 TAP_142
*1127 TAP_143
*1128 TAP_144
*1129 TAP_145
*1130 TAP_146
*1131 TAP_147
*1132 TAP_148
*1133 TAP_149
*1134 TAP_150
*1135 TAP_151
*1136 TAP_152
*1137 TAP_153
*1138 TAP_154
*1139 TAP_155
*1140 TAP_156
*1141 TAP_157
*1142 TAP_158
*1143 TAP_159
*1144 TAP_160
*1145 TAP_161
*1146 TAP_162
*1147 TAP_163
*1148 TAP_164
*1149 TAP_165
*1150 TAP_64
*1151 TAP_65
*1152 TAP_66
*1153 TAP_67
*1154 TAP_68
*1155 TAP_69
*1156 TAP_70
*1157 TAP_71
*1158 TAP_72
*1159 TAP_73
*1160 TAP_74
*1161 TAP_75
*1162 TAP_76
*1163 TAP_77
*1164 TAP_78
*1165 TAP_79
*1166 TAP_80
*1167 TAP_81
*1168 TAP_82
*1169 TAP_83
*1170 TAP_84
*1171 TAP_85
*1172 TAP_86
*1173 TAP_87
*1174 TAP_88
*1175 TAP_89
*1176 TAP_90
*1177 TAP_91
*1178 TAP_92
*1179 TAP_93
*1180 TAP_94
*1181 TAP_95
*1182 TAP_96
*1183 TAP_97
*1184 TAP_98
*1185 TAP_99
*1186 _221_
*1187 _222_
*1188 _223_
*1189 _224_
*1190 _225_
*1191 _226_
*1192 _227_
*1193 _228_
*1194 _229_
*1195 _230_
*1196 _231_
*1197 _232_
*1198 _233_
*1199 _234_
*1200 _235_
*1201 _236_
*1202 _237_
*1203 _238_
*1204 _239_
*1205 _240_
*1206 _241_
*1207 _242_
*1208 _243_
*1209 _244_
*1210 _245_
*1211 _246_
*1212 _247_
*1213 _248_
*1214 _249_
*1215 _250_
*1216 _251_
*1217 _252_
*1218 _253_
*1219 _254_
*1220 _255_
*1221 _256_
*1222 _257_
*1223 _258_
*1224 _259_
*1225 _260_
*1226 _261_
*1227 _262_
*1228 _263_
*1229 _264_
*1230 _265_
*1231 _266_
*1232 _267_
*1233 _268_
*1234 _269_
*1235 _270_
*1236 _271_
*1237 _272_
*1238 _273_
*1239 _274_
*1240 _275_
*1241 _276_
*1242 _277_
*1243 _278_
*1244 _279_
*1245 _280_
*1246 _281_
*1247 _282_
*1248 _283_
*1249 _284_
*1250 _285_
*1251 _286_
*1252 _287_
*1253 _288_
*1254 _289_
*1255 _290_
*1256 _291_
*1257 _292_
*1258 _293_
*1259 _294_
*1260 _295_
*1261 _296_
*1262 _297_
*1263 _298_
*1264 _299_
*1265 _300_
*1266 _301_
*1267 _302_
*1268 _303_
*1269 _304_
*1270 _305_
*1271 _306_
*1272 _307_
*1273 _308_
*1274 _309_
*1275 _310_
*1276 _311_
*1277 _312_
*1278 _313_
*1279 _314_
*1280 _315_
*1281 _316_
*1282 _317_
*1283 _318_
*1284 _319_
*1285 _320_
*1286 _321_
*1287 _322_
*1288 _323_
*1289 _324_
*1290 _325_
*1291 _326_
*1292 _327_
*1293 _328_
*1294 _329_
*1295 _330_
*1296 _331_
*1297 _332_
*1298 _333_
*1299 _334_
*1300 _335_
*1301 _336_
*1302 _337_
*1303 _338_
*1304 _339_
*1305 _340_
*1306 _341_
*1307 _342_
*1308 _343_
*1309 _344_
*1310 _345_
*1311 _346_
*1312 _347_
*1313 _348_
*1314 _349_
*1315 _350_
*1316 _351_
*1317 _352_
*1318 _353_
*1319 _354_
*1320 _355_
*1321 _356_
*1322 _357_
*1323 _358_
*1324 _359_
*1325 _360_
*1326 _361_
*1327 _362_
*1328 _363_
*1329 _364_
*1330 _365_
*1331 _366_
*1332 _367_
*1333 _368_
*1334 _369_
*1335 _370_
*1336 _371_
*1337 _372_
*1338 _373_
*1339 _374_
*1340 _375_
*1341 _376_
*1342 _377_
*1343 _378_
*1344 _379_
*1345 _380_
*1346 _381_
*1347 _382_
*1348 _383_
*1349 _384_
*1350 _385_
*1351 _386_
*1352 _387_
*1353 _388_
*1354 _389_
*1355 _390_
*1356 _391_
*1357 _392_
*1358 _393_
*1359 _394_
*1360 _395_
*1361 _396_
*1362 _397_
*1363 _398_
*1364 _399_
*1365 _400_
*1366 _401_
*1367 _402_
*1368 _403_
*1369 _404_
*1370 _405_
*1371 _406_
*1372 _407_
*1373 _408_
*1374 _409_
*1375 _410_
*1376 _411_
*1377 _412_
*1378 _413_
*1379 _414_
*1380 _415_
*1381 _416_
*1382 _417_
*1383 _418_
*1384 _419_
*1385 _420_
*1386 _421_
*1387 _422_
*1388 _423_
*1389 _424_
*1390 _425_
*1391 _426_
*1392 _427_
*1393 _428_
*1394 _429_
*1395 _430_
*1396 _431_
*1397 _432_
*1398 _433_
*1399 _434_
*1400 _435_
*1401 _436_
*1402 _437_
*1403 _438_
*1404 _439_
*1405 _440_
*1406 _441_
*1407 _442_
*1408 _443_
*1409 _444_
*1410 _445_
*1411 _446_
*1412 _447_
*1413 _448_
*1414 _449_
*1415 _450_
*1416 _451_
*1417 _452_
*1418 _453_
*1419 _454_
*1420 _455_
*1421 _456_
*1422 _457_
*1423 _458_
*1424 _459_
*1425 _460_
*1426 _461_
*1427 _462_
*1428 _463_
*1429 _464_
*1430 _465_
*1431 _466_
*1432 _467_
*1433 _468_
*1434 _469_
*1435 _470_
*1436 _471_
*1437 _472_
*1438 _473_
*1439 _474_
*1440 _475_
*1441 _476_
*1442 _477_
*1443 _478_
*1444 _479_
*1445 _480_
*1446 _481_
*1447 _482_
*1448 _483_
*1449 _484_
*1450 _485_
*1451 _486_
*1452 _487_
*1453 _488_
*1454 _489_
*1455 _490_
*1456 _491_
*1457 _492_
*1458 _493_
*1459 _494_
*1460 _495_
*1461 _496_
*1462 _497_
*1463 _498_
*1464 _499_
*1465 _500_
*1466 _501_
*1467 _502_
*1468 _503_
*1469 _504_
*1470 _505_
*1471 clkbuf_0_clk
*1472 clkbuf_1_0_0_clk
*1473 clkbuf_1_1_0_clk
*1474 clkbuf_2_0_0_clk
*1475 clkbuf_2_1_0_clk
*1476 clkbuf_2_2_0_clk
*1477 clkbuf_2_3_0_clk
*1478 clkbuf_3_0_0_clk
*1479 clkbuf_3_1_0_clk
*1480 clkbuf_3_2_0_clk
*1481 clkbuf_3_3_0_clk
*1482 clkbuf_3_4_0_clk
*1483 clkbuf_3_5_0_clk
*1484 clkbuf_3_6_0_clk
*1485 clkbuf_3_7_0_clk
*1486 input1
*1487 input10
*1488 input11
*1489 input12
*1490 input13
*1491 input14
*1492 input15
*1493 input16
*1494 input17
*1495 input18
*1496 input19
*1497 input2
*1498 input20
*1499 input21
*1500 input22
*1501 input23
*1502 input24
*1503 input25
*1504 input26
*1505 input27
*1506 input28
*1507 input29
*1508 input3
*1509 input30
*1510 input31
*1511 input32
*1512 input33
*1513 input34
*1514 input35
*1515 input36
*1516 input4
*1517 input5
*1518 input6
*1519 input7
*1520 input8
*1521 input9
*1522 output37
*1523 output38
*1524 output39
*1525 output40
*1526 output41
*1527 output42
*1528 output43
*1529 output44
*1530 output45
*1531 output46
*1532 output47
*1533 output48
*1534 output49
*1535 output50
*1536 output51
*1537 output52
*1538 output53
*1539 output54
*1540 output55
*1541 output56
*1542 output57
*1543 output58
*1544 output59
*1545 output60
*1546 output61
*1547 output62
*1548 output63
*1549 output64
*1550 output65
*1551 output66
*1552 output67
*1553 output68
*1554 output69

*PORTS
clk I
load I
r_load[0] O
r_load[10] O
r_load[11] O
r_load[12] O
r_load[13] O
r_load[14] O
r_load[15] O
r_load[16] O
r_load[17] O
r_load[18] O
r_load[19] O
r_load[1] O
r_load[20] O
r_load[21] O
r_load[22] O
r_load[23] O
r_load[24] O
r_load[25] O
r_load[26] O
r_load[27] O
r_load[28] O
r_load[29] O
r_load[2] O
r_load[30] O
r_load[31] O
r_load[3] O
r_load[4] O
r_load[5] O
r_load[6] O
r_load[7] O
r_load[8] O
r_load[9] O
r_read[0] I
r_read[10] I
r_read[11] I
r_read[12] I
r_read[13] I
r_read[14] I
r_read[15] I
r_read[16] I
r_read[17] I
r_read[18] I
r_read[19] I
r_read[1] I
r_read[20] I
r_read[21] I
r_read[22] I
r_read[23] I
r_read[24] I
r_read[25] I
r_read[26] I
r_read[27] I
r_read[28] I
r_read[29] I
r_read[2] I
r_read[30] I
r_read[31] I
r_read[3] I
r_read[4] I
r_read[5] I
r_read[6] I
r_read[7] I
r_read[8] I
r_read[9] I
read I
reset I
s_in I
s_out O

*D_NET *3 0.0106638
*CONN
*P clk I
*I *1471:A I *D sky130_fd_sc_hd__clkbuf_16
*CAP
1 clk 0.00230211
2 *1471:A 0
3 *3:11 0.00159811
4 *3:8 0.00390022
5 *3:8 *1193:A1 0.000200236
6 *3:8 *1362:S 0.000219769
7 *3:8 *1468:RESET_B 0.000224395
8 *3:8 *1502:A 0
9 *3:8 *293:17 4.79691e-05
10 *3:8 *314:9 0.000533523
11 *3:8 *317:8 0
12 *3:8 *351:15 0.000260374
13 *3:11 *1204:A 0.000150538
14 *3:11 *1209:A 0.000116986
15 *3:11 *1215:A 0
16 *3:11 *1331:A 0
17 *3:11 *1353:A 0.000216073
18 *3:11 *1398:A 0
19 *3:11 *1399:A 0.00072743
20 *3:11 *1418:CLK 0
21 *3:11 *1463:D 0
22 *3:11 *1465:D 9.10581e-05
23 *3:11 *1466:D 0
24 *3:11 *1466:RESET_B 4.90694e-05
25 *3:11 *185:27 0
26 *3:11 *185:31 0
27 *3:11 *247:6 0
28 *3:11 *247:11 0
29 *3:11 *291:10 2.59855e-05
30 *3:11 *292:66 0
31 *3:11 *293:6 0
32 *3:11 *293:11 0
33 *3:11 *305:65 0
34 *3:11 *321:11 0
*RES
1 clk *3:8 49.9933 
2 *3:8 *3:11 47.0267 
3 *3:11 *1471:A 13.7491 
*END

*D_NET *4 0.00147201
*CONN
*P load I
*I *1486:A I *D sky130_fd_sc_hd__clkbuf_2
*CAP
1 load 0.000471001
2 *1486:A 0.000471001
3 *1486:A s_out 0
4 *1486:A *1325:A1 9.31448e-05
5 *1486:A *1518:A 0
6 *1486:A *1525:A 5.84419e-05
7 *1486:A *322:16 0.00037842
*RES
1 load *1486:A 24.8594 
*END

*D_NET *5 0.000513461
*CONN
*P r_load[0] O
*I *1522:X O *D sky130_fd_sc_hd__buf_2
*CAP
1 r_load[0] 0.000247168
2 *1522:X 0.000247168
3 r_load[0] r_load[26] 0
4 r_load[0] *1515:A 0
5 r_load[0] *377:8 1.91246e-05
*RES
1 *1522:X r_load[0] 18.3246 
*END

*D_NET *6 0.0014019
*CONN
*P r_load[10] O
*I *1523:X O *D sky130_fd_sc_hd__buf_2
*CAP
1 r_load[10] 0.000617479
2 *1523:X 0.000617479
3 r_load[10] *1523:A 0.000147325
4 r_load[10] *330:7 1.9622e-05
*RES
1 *1523:X r_load[10] 27.7834 
*END

*D_NET *7 0.00258672
*CONN
*P r_load[11] O
*I *1524:X O *D sky130_fd_sc_hd__buf_2
*CAP
1 r_load[11] 0.00118245
2 *1524:X 0.00118245
3 r_load[11] *1515:A 0
4 r_load[11] *1521:A 0.000146941
5 r_load[11] *1524:A 7.48797e-05
*RES
1 *1524:X r_load[11] 37.4876 
*END

*D_NET *8 0.000750667
*CONN
*P r_load[12] O
*I *1525:X O *D sky130_fd_sc_hd__buf_2
*CAP
1 r_load[12] 0.000300998
2 *1525:X 0.000300998
3 r_load[12] r_load[19] 9.99116e-05
4 r_load[12] r_load[24] 0
5 r_load[12] *322:16 4.87595e-05
*RES
1 *1525:X r_load[12] 18.9694 
*END

*D_NET *9 0.00173481
*CONN
*P r_load[13] O
*I *1526:X O *D sky130_fd_sc_hd__buf_2
*CAP
1 r_load[13] 0.000781307
2 *1526:X 0.000781307
3 r_load[13] r_load[1] 5.74949e-05
4 r_load[13] r_load[25] 0
5 r_load[13] r_load[6] 0
6 r_load[13] *1500:A 9.30674e-05
7 r_load[13] *1526:A 2.16355e-05
*RES
1 *1526:X r_load[13] 32.4891 
*END

*D_NET *10 0.000697748
*CONN
*P r_load[14] O
*I *1527:X O *D sky130_fd_sc_hd__buf_2
*CAP
1 r_load[14] 0.000326321
2 *1527:X 0.000326321
3 r_load[14] r_load[15] 0
4 r_load[14] r_load[1] 0
5 r_load[14] *1526:A 4.51062e-05
6 r_load[14] *358:20 0
*RES
1 *1527:X r_load[14] 18.9694 
*END

*D_NET *11 0.00115967
*CONN
*P r_load[15] O
*I *1528:X O *D sky130_fd_sc_hd__buf_2
*CAP
1 r_load[15] 0.000369923
2 *1528:X 0.000369923
3 r_load[15] *1516:A 0
4 r_load[15] *1526:A 0.000211312
5 r_load[15] *1527:A 0.000204871
6 r_load[15] *346:14 3.64497e-06
7 r_load[14] r_load[15] 0
*RES
1 *1528:X r_load[15] 21.8761 
*END

*D_NET *12 0.000599013
*CONN
*P r_load[16] O
*I *1529:X O *D sky130_fd_sc_hd__buf_2
*CAP
1 r_load[16] 0.000299507
2 *1529:X 0.000299507
3 r_load[16] *1491:A 0
4 r_load[16] *1501:A 0
*RES
1 *1529:X r_load[16] 19.1551 
*END

*D_NET *13 0.0017491
*CONN
*P r_load[17] O
*I *1530:X O *D sky130_fd_sc_hd__buf_2
*CAP
1 r_load[17] 0.000682022
2 *1530:X 0.000682022
3 r_load[17] r_load[19] 0
4 r_load[17] *1310:A0 4.61962e-05
5 r_load[17] *1316:S 0.000117116
6 r_load[17] *1499:A 0
7 r_load[17] *1530:A 0.000140453
8 r_load[17] *318:8 2.60879e-06
9 r_load[17] *369:10 7.86847e-05
*RES
1 *1530:X r_load[17] 24.9796 
*END

*D_NET *14 0.00254993
*CONN
*P r_load[18] O
*I *1531:X O *D sky130_fd_sc_hd__buf_2
*CAP
1 r_load[18] 0.000839225
2 *1531:X 0.000839225
3 r_load[18] r_load[31] 0
4 r_load[18] *1515:A 0
5 r_load[18] *1521:A 0.00087148
6 r_load[18] *1524:A 0
7 r_load[18] *1546:A 0
*RES
1 *1531:X r_load[18] 32.6836 
*END

*D_NET *15 0.00204787
*CONN
*P r_load[19] O
*I *1532:X O *D sky130_fd_sc_hd__buf_2
*CAP
1 r_load[19] 0.000913928
2 *1532:X 0.000913928
3 r_load[19] *1340:A1 5.99425e-05
4 r_load[19] *267:62 6.01588e-05
5 r_load[12] r_load[19] 9.99116e-05
6 r_load[17] r_load[19] 0
*RES
1 *1532:X r_load[19] 20.8379 
*END

*D_NET *16 0.00111123
*CONN
*P r_load[1] O
*I *1533:X O *D sky130_fd_sc_hd__buf_2
*CAP
1 r_load[1] 0.000450246
2 *1533:X 0.000450246
3 r_load[1] r_load[25] 0
4 r_load[1] r_load[6] 0
5 r_load[1] *1500:A 0
6 r_load[1] *1526:A 0.00015324
7 r_load[1] *358:20 0
8 r_load[13] r_load[1] 5.74949e-05
9 r_load[14] r_load[1] 0
*RES
1 *1533:X r_load[1] 22.7066 
*END

*D_NET *17 0.00169659
*CONN
*P r_load[20] O
*I *1534:X O *D sky130_fd_sc_hd__buf_2
*CAP
1 r_load[20] 0.00062989
2 *1534:X 0.00062989
3 r_load[20] *1492:A 0
4 r_load[20] *335:7 0.000436811
*RES
1 *1534:X r_load[20] 28.6139 
*END

*D_NET *18 0.000752519
*CONN
*P r_load[21] O
*I *1535:X O *D sky130_fd_sc_hd__buf_2
*CAP
1 r_load[21] 0.000303
2 *1535:X 0.000303
3 r_load[21] *1516:A 0
4 r_load[21] *1518:A 8.30788e-05
5 r_load[21] *322:20 6.34391e-05
*RES
1 *1535:X r_load[21] 19.3846 
*END

*D_NET *19 0.000975321
*CONN
*P r_load[22] O
*I *1536:X O *D sky130_fd_sc_hd__buf_2
*CAP
1 r_load[22] 0.000460395
2 *1536:X 0.000460395
3 r_load[22] *1504:A 0
4 r_load[22] *1536:A 3.07133e-05
5 r_load[22] *331:5 2.3817e-05
*RES
1 *1536:X r_load[22] 25.0104 
*END

*D_NET *20 0.000523727
*CONN
*P r_load[23] O
*I *1537:X O *D sky130_fd_sc_hd__buf_2
*CAP
1 r_load[23] 0.000256194
2 *1537:X 0.000256194
3 r_load[23] *1488:A 0
4 r_load[23] *62:17 0
5 r_load[23] *303:28 7.13655e-06
6 r_load[23] *338:8 4.20184e-06
*RES
1 *1537:X r_load[23] 18.3246 
*END

*D_NET *21 0.00069416