* NGSPICE file created from shiftregister.ext - technology: sky130A

* Black-box entry subcircuit for sky130_fd_sc_hd__decap_12 abstract view
.subckt sky130_fd_sc_hd__decap_12 VGND VNB VPB VPWR
.ends

* Black-box entry subcircuit for sky130_fd_sc_hd__mux2_1 abstract view
.subckt sky130_fd_sc_hd__mux2_1 A0 A1 S VGND VNB VPB VPWR X
.ends

* Black-box entry subcircuit for sky130_fd_sc_hd__decap_8 abstract view
.subckt sky130_fd_sc_hd__decap_8 VGND VNB VPB VPWR
.ends

* Black-box entry subcircuit for sky130_fd_sc_hd__dfrtp_1 abstract view
.subckt sky130_fd_sc_hd__dfrtp_1 CLK D RESET_B VGND VNB VPB VPWR Q
.ends

* Black-box entry subcircuit for sky130_fd_sc_hd__inv_2 abstract view
.subckt sky130_fd_sc_hd__inv_2 A VGND VNB VPB VPWR Y
.ends

* Black-box entry subcircuit for sky130_fd_sc_hd__clkbuf_1 abstract view
.subckt sky130_fd_sc_hd__clkbuf_1 A VGND VNB VPB VPWR X
.ends

* Black-box entry subcircuit for sky130_fd_sc_hd__decap_4 abstract view
.subckt sky130_fd_sc_hd__decap_4 VGND VNB VPB VPWR
.ends

* Black-box entry subcircuit for sky130_fd_sc_hd__fill_2 abstract view
.subckt sky130_fd_sc_hd__fill_2 VGND VNB VPB VPWR
.ends

* Black-box entry subcircuit for sky130_fd_sc_hd__decap_6 abstract view
.subckt sky130_fd_sc_hd__decap_6 VGND VNB VPB VPWR
.ends

* Black-box entry subcircuit for sky130_fd_sc_hd__fill_1 abstract view
.subckt sky130_fd_sc_hd__fill_1 VGND VNB VPB VPWR
.ends

* Black-box entry subcircuit for sky130_fd_sc_hd__clkbuf_2 abstract view
.subckt sky130_fd_sc_hd__clkbuf_2 A VGND VNB VPB VPWR X
.ends

* Black-box entry subcircuit for sky130_fd_sc_hd__decap_3 abstract view
.subckt sky130_fd_sc_hd__decap_3 VGND VNB VPB VPWR
.ends

* Black-box entry subcircuit for sky130_fd_sc_hd__buf_2 abstract view
.subckt sky130_fd_sc_hd__buf_2 A VGND VNB VPB VPWR X
.ends

* Black-box entry subcircuit for sky130_fd_sc_hd__tapvpwrvgnd_1 abstract view
.subckt sky130_fd_sc_hd__tapvpwrvgnd_1 VGND VPWR
.ends

* Black-box entry subcircuit for sky130_fd_sc_hd__dfxtp_1 abstract view
.subckt sky130_fd_sc_hd__dfxtp_1 CLK D VGND VNB VPB VPWR Q
.ends

* Black-box entry subcircuit for sky130_fd_sc_hd__clkbuf_16 abstract view
.subckt sky130_fd_sc_hd__clkbuf_16 A VGND VNB VPB VPWR X
.ends

* Black-box entry subcircuit for sky130_fd_sc_hd__dlymetal6s2s_1 abstract view
.subckt sky130_fd_sc_hd__dlymetal6s2s_1 A VGND VNB VPB VPWR X
.ends

* Black-box entry subcircuit for sky130_fd_sc_hd__or2b_1 abstract view
.subckt sky130_fd_sc_hd__or2b_1 A B_N VGND VNB VPB VPWR X
.ends

* Black-box entry subcircuit for sky130_fd_sc_hd__dfrtp_2 abstract view
.subckt sky130_fd_sc_hd__dfrtp_2 CLK D RESET_B VGND VNB VPB VPWR Q
.ends

* Black-box entry subcircuit for sky130_fd_sc_hd__diode_2 abstract view
.subckt sky130_fd_sc_hd__diode_2 DIODE VGND VNB VPB VPWR
.ends

.subckt shiftregister VGND VPWR clk load r_load[0] r_load[10] r_load[11] r_load[12]
+ r_load[13] r_load[14] r_load[15] r_load[16] r_load[17] r_load[18] r_load[19] r_load[1]
+ r_load[20] r_load[21] r_load[22] r_load[23] r_load[24] r_load[25] r_load[26] r_load[27]
+ r_load[28] r_load[29] r_load[2] r_load[30] r_load[31] r_load[3] r_load[4] r_load[5]
+ r_load[6] r_load[7] r_load[8] r_load[9] r_read[0] r_read[10] r_read[11] r_read[12]
+ r_read[13] r_read[14] r_read[15] r_read[16] r_read[17] r_read[18] r_read[19] r_read[1]
+ r_read[20] r_read[21] r_read[22] r_read[23] r_read[24] r_read[25] r_read[26] r_read[27]
+ r_read[28] r_read[29] r_read[2] r_read[30] r_read[31] r_read[3] r_read[4] r_read[5]
+ r_read[6] r_read[7] r_read[8] r_read[9] read reset s_in s_out
XFILLER_26_41 VGND VGND VPWR VPWR sky130_fd_sc_hd__decap_12
X_294_ _292_/X _485_/Q _306_/S VGND VGND VPWR VPWR _295_/A sky130_fd_sc_hd__mux2_1
XFILLER_3_67 VGND VGND VPWR VPWR sky130_fd_sc_hd__decap_8
X_501_ _504_/CLK _501_/D _437_/Y VGND VGND VPWR VPWR _501_/Q sky130_fd_sc_hd__dfrtp_1
X_432_ _433_/A VGND VGND VPWR VPWR _432_/Y sky130_fd_sc_hd__inv_2
X_363_ _363_/A VGND VGND VPWR VPWR _455_/D sky130_fd_sc_hd__clkbuf_1
XFILLER_8_170 VGND VGND VPWR VPWR sky130_fd_sc_hd__decap_4
X_346_ _346_/A VGND VGND VPWR VPWR _447_/D sky130_fd_sc_hd__clkbuf_1
X_415_ _415_/A VGND VGND VPWR VPWR _415_/Y sky130_fd_sc_hd__inv_2
X_277_ _275_/X _490_/Q _289_/S VGND VGND VPWR VPWR _278_/A sky130_fd_sc_hd__mux2_1
X_329_ _328_/X _474_/Q _329_/S VGND VGND VPWR VPWR _330_/A sky130_fd_sc_hd__mux2_1
XFILLER_0_57 VGND VGND VPWR VPWR sky130_fd_sc_hd__fill_2
XFILLER_0_13 VGND VGND VPWR VPWR sky130_fd_sc_hd__decap_4
XFILLER_2_165 VGND VGND VPWR VPWR sky130_fd_sc_hd__decap_6
XFILLER_9_55 VGND VGND VPWR VPWR sky130_fd_sc_hd__fill_1
Xclkbuf_3_1_0_clk clkbuf_3_1_0_clk/A VGND VGND VPWR VPWR _504_/CLK sky130_fd_sc_hd__clkbuf_2
XFILLER_28_183 VGND VGND VPWR VPWR sky130_fd_sc_hd__decap_4
XFILLER_19_172 VGND VGND VPWR VPWR sky130_fd_sc_hd__decap_4
XFILLER_19_161 VGND VGND VPWR VPWR sky130_fd_sc_hd__decap_6
XFILLER_31_53 VGND VGND VPWR VPWR sky130_fd_sc_hd__decap_3
XFILLER_25_164 VGND VGND VPWR VPWR sky130_fd_sc_hd__decap_4
Xoutput64 _447_/Q VGND VGND VPWR VPWR r_load[5] sky130_fd_sc_hd__buf_2
Xoutput53 _466_/Q VGND VGND VPWR VPWR r_load[24] sky130_fd_sc_hd__buf_2
XFILLER_16_186 VGND VGND VPWR VPWR sky130_fd_sc_hd__fill_1
XFILLER_16_131 VGND VGND VPWR VPWR sky130_fd_sc_hd__decap_8
Xoutput42 _456_/Q VGND VGND VPWR VPWR r_load[14] sky130_fd_sc_hd__buf_2
XTAP_156 VGND VPWR sky130_fd_sc_hd__tapvpwrvgnd_1
XTAP_145 VGND VPWR sky130_fd_sc_hd__tapvpwrvgnd_1
XFILLER_22_145 VGND VGND VPWR VPWR sky130_fd_sc_hd__fill_1
XTAP_134 VGND VPWR sky130_fd_sc_hd__tapvpwrvgnd_1
XTAP_123 VGND VPWR sky130_fd_sc_hd__tapvpwrvgnd_1
XTAP_112 VGND VPWR sky130_fd_sc_hd__tapvpwrvgnd_1
XTAP_101 VGND VPWR sky130_fd_sc_hd__tapvpwrvgnd_1
XFILLER_26_53 VGND VGND VPWR VPWR sky130_fd_sc_hd__fill_2
X_293_ _310_/A VGND VGND VPWR VPWR _306_/S sky130_fd_sc_hd__buf_2
X_500_ _504_/CLK _500_/D _436_/Y VGND VGND VPWR VPWR _500_/Q sky130_fd_sc_hd__dfrtp_1
X_362_ _487_/Q _455_/Q _364_/S VGND VGND VPWR VPWR _363_/A sky130_fd_sc_hd__mux2_1
X_431_ _433_/A VGND VGND VPWR VPWR _431_/Y sky130_fd_sc_hd__inv_2
XFILLER_10_148 VGND VGND VPWR VPWR sky130_fd_sc_hd__decap_4
XFILLER_10_115 VGND VGND VPWR VPWR sky130_fd_sc_hd__decap_4
XFILLER_6_119 VGND VGND VPWR VPWR sky130_fd_sc_hd__decap_4
X_414_ _415_/A VGND VGND VPWR VPWR _414_/Y sky130_fd_sc_hd__inv_2
X_345_ _479_/Q _447_/Q _353_/S VGND VGND VPWR VPWR _346_/A sky130_fd_sc_hd__mux2_1
X_276_ _310_/A VGND VGND VPWR VPWR _289_/S sky130_fd_sc_hd__clkbuf_2
XFILLER_23_98 VGND VGND VPWR VPWR sky130_fd_sc_hd__decap_6
X_259_ _329_/S VGND VGND VPWR VPWR _272_/S sky130_fd_sc_hd__clkbuf_2
X_328_ _475_/Q input2/X _328_/S VGND VGND VPWR VPWR _328_/X sky130_fd_sc_hd__mux2_1
Xclkbuf_3_0_0_clk clkbuf_3_1_0_clk/A VGND VGND VPWR VPWR _505_/CLK sky130_fd_sc_hd__clkbuf_2
XFILLER_15_66 VGND VGND VPWR VPWR sky130_fd_sc_hd__decap_4
XFILLER_15_22 VGND VGND VPWR VPWR sky130_fd_sc_hd__decap_4
XFILLER_31_113 VGND VGND VPWR VPWR sky130_fd_sc_hd__fill_2
XFILLER_31_98 VGND VGND VPWR VPWR sky130_fd_sc_hd__decap_3
XFILLER_31_21 VGND VGND VPWR VPWR sky130_fd_sc_hd__decap_6
XFILLER_16_165 VGND VGND VPWR VPWR sky130_fd_sc_hd__decap_4
XFILLER_16_110 VGND VGND VPWR VPWR sky130_fd_sc_hd__decap_4
Xoutput54 _467_/Q VGND VGND VPWR VPWR r_load[25] sky130_fd_sc_hd__buf_2
Xoutput65 _448_/Q VGND VGND VPWR VPWR r_load[6] sky130_fd_sc_hd__buf_2
Xoutput43 _457_/Q VGND VGND VPWR VPWR r_load[15] sky130_fd_sc_hd__buf_2
XTAP_157 VGND VPWR sky130_fd_sc_hd__tapvpwrvgnd_1
XTAP_146 VGND VPWR sky130_fd_sc_hd__tapvpwrvgnd_1
XTAP_135 VGND VPWR sky130_fd_sc_hd__tapvpwrvgnd_1
XTAP_124 VGND VPWR sky130_fd_sc_hd__tapvpwrvgnd_1
XTAP_113 VGND VPWR sky130_fd_sc_hd__tapvpwrvgnd_1
XTAP_102 VGND VPWR sky130_fd_sc_hd__tapvpwrvgnd_1
X_430_ _433_/A VGND VGND VPWR VPWR _430_/Y sky130_fd_sc_hd__inv_2
XFILLER_26_65 VGND VGND VPWR VPWR sky130_fd_sc_hd__decap_4
X_292_ _486_/Q input4/X _305_/S VGND VGND VPWR VPWR _292_/X sky130_fd_sc_hd__mux2_1
X_361_ _361_/A VGND VGND VPWR VPWR _454_/D sky130_fd_sc_hd__clkbuf_1
XFILLER_12_89 VGND VGND VPWR VPWR sky130_fd_sc_hd__decap_4
XFILLER_12_34 VGND VGND VPWR VPWR sky130_fd_sc_hd__decap_4
X_413_ _415_/A VGND VGND VPWR VPWR _413_/Y sky130_fd_sc_hd__inv_2
X_344_ _401_/S VGND VGND VPWR VPWR _353_/S sky130_fd_sc_hd__buf_2
X_275_ _491_/Q input9/X _288_/S VGND VGND VPWR VPWR _275_/X sky130_fd_sc_hd__mux2_1
XFILLER_5_164 VGND VGND VPWR VPWR sky130_fd_sc_hd__decap_4
XFILLER_5_186 VGND VGND VPWR VPWR sky130_fd_sc_hd__fill_1
XFILLER_23_55 VGND VGND VPWR VPWR sky130_fd_sc_hd__fill_1
XFILLER_0_48 VGND VGND VPWR VPWR sky130_fd_sc_hd__fill_1
XFILLER_3_3 VGND VGND VPWR VPWR sky130_fd_sc_hd__decap_12
X_258_ _496_/Q _258_/A1 _271_/S VGND VGND VPWR VPWR _258_/X sky130_fd_sc_hd__mux2_1
X_327_ _327_/A VGND VGND VPWR VPWR _475_/D sky130_fd_sc_hd__clkbuf_1
XFILLER_9_57 VGND VGND VPWR VPWR sky130_fd_sc_hd__fill_1
XFILLER_18_77 VGND VGND VPWR VPWR sky130_fd_sc_hd__decap_6
XFILLER_18_66 VGND VGND VPWR VPWR sky130_fd_sc_hd__fill_2
XFILLER_18_33 VGND VGND VPWR VPWR sky130_fd_sc_hd__decap_4
XFILLER_20_23 VGND VGND VPWR VPWR sky130_fd_sc_hd__decap_4
XFILLER_1_91 VGND VGND VPWR VPWR sky130_fd_sc_hd__fill_1
XFILLER_28_163 VGND VGND VPWR VPWR sky130_fd_sc_hd__decap_4
XFILLER_28_141 VGND VGND VPWR VPWR sky130_fd_sc_hd__decap_6
XFILLER_6_58 VGND VGND VPWR VPWR sky130_fd_sc_hd__decap_3
XFILLER_19_141 VGND VGND VPWR VPWR sky130_fd_sc_hd__decap_4
Xoutput66 _449_/Q VGND VGND VPWR VPWR r_load[7] sky130_fd_sc_hd__buf_2
XFILLER_31_77 VGND VGND VPWR VPWR sky130_fd_sc_hd__decap_6
XFILLER_31_33 VGND VGND VPWR VPWR sky130_fd_sc_hd__decap_4
Xoutput55 _468_/Q VGND VGND VPWR VPWR r_load[26] sky130_fd_sc_hd__buf_2
XFILLER_25_133 VGND VGND VPWR VPWR sky130_fd_sc_hd__decap_8
Xoutput44 _458_/Q VGND VGND VPWR VPWR r_load[16] sky130_fd_sc_hd__buf_2
XFILLER_31_169 VGND VGND VPWR VPWR sky130_fd_sc_hd__decap_4
XFILLER_31_125 VGND VGND VPWR VPWR sky130_fd_sc_hd__decap_4
XTAP_158 VGND VPWR sky130_fd_sc_hd__tapvpwrvgnd_1
XTAP_147 VGND VPWR sky130_fd_sc_hd__tapvpwrvgnd_1
XTAP_136 VGND VPWR sky130_fd_sc_hd__tapvpwrvgnd_1
XFILLER_22_136 VGND VGND VPWR VPWR sky130_fd_sc_hd__decap_4
XTAP_125 VGND VPWR sky130_fd_sc_hd__tapvpwrvgnd_1
XTAP_114 VGND VPWR sky130_fd_sc_hd__tapvpwrvgnd_1
XTAP_103 VGND VPWR sky130_fd_sc_hd__tapvpwrvgnd_1
XFILLER_26_88 VGND VGND VPWR VPWR sky130_fd_sc_hd__decap_4
X_291_ _308_/A VGND VGND VPWR VPWR _305_/S sky130_fd_sc_hd__buf_2
XFILLER_13_169 VGND VGND VPWR VPWR sky130_fd_sc_hd__decap_4
X_360_ _486_/Q _454_/Q _364_/S VGND VGND VPWR VPWR _361_/A sky130_fd_sc_hd__mux2_1
X_489_ _495_/CLK _489_/D _423_/Y VGND VGND VPWR VPWR _489_/Q sky130_fd_sc_hd__dfrtp_1
XFILLER_3_15 VGND VGND VPWR VPWR sky130_fd_sc_hd__decap_12
XFILLER_5_7 VGND VGND VPWR VPWR sky130_fd_sc_hd__decap_12
X_412_ _415_/A VGND VGND VPWR VPWR _412_/Y sky130_fd_sc_hd__inv_2
X_274_ _308_/A VGND VGND VPWR VPWR _288_/S sky130_fd_sc_hd__clkbuf_2
X_343_ _343_/A VGND VGND VPWR VPWR _446_/D sky130_fd_sc_hd__clkbuf_1
XFILLER_5_110 VGND VGND VPWR VPWR sky130_fd_sc_hd__fill_2
XFILLER_4_80 VGND VGND VPWR VPWR sky130_fd_sc_hd__decap_4
X_257_ _328_/S VGND VGND VPWR VPWR _271_/S sky130_fd_sc_hd__clkbuf_2
X_326_ _325_/X _475_/Q _329_/S VGND VGND VPWR VPWR _327_/A sky130_fd_sc_hd__mux2_1
XFILLER_9_47 VGND VGND VPWR VPWR sky130_fd_sc_hd__decap_8
X_309_ _481_/Q _309_/A1 _322_/S VGND VGND VPWR VPWR _309_/X sky130_fd_sc_hd__mux2_1
XFILLER_15_9 VGND VGND VPWR VPWR sky130_fd_sc_hd__decap_4
XFILLER_6_26 VGND VGND VPWR VPWR sky130_fd_sc_hd__fill_2
Xoutput67 _450_/Q VGND VGND VPWR VPWR r_load[8] sky130_fd_sc_hd__buf_2
Xoutput45 _459_/Q VGND VGND VPWR VPWR r_load[17] sky130_fd_sc_hd__buf_2
XFILLER_25_123 VGND VGND VPWR VPWR sky130_fd_sc_hd__fill_1
XFILLER_15_35 VGND VGND VPWR VPWR sky130_fd_sc_hd__decap_6
Xoutput56 _469_/Q VGND VGND VPWR VPWR r_load[27] sky130_fd_sc_hd__buf_2
XTAP_159 VGND VPWR sky130_fd_sc_hd__tapvpwrvgnd_1
XTAP_148 VGND VPWR sky130_fd_sc_hd__tapvpwrvgnd_1
XTAP_137 VGND VPWR sky130_fd_sc_hd__tapvpwrvgnd_1
XTAP_126 VGND VPWR sky130_fd_sc_hd__tapvpwrvgnd_1
XFILLER_16_178 VGND VGND VPWR VPWR sky130_fd_sc_hd__decap_8
XTAP_115 VGND VPWR sky130_fd_sc_hd__tapvpwrvgnd_1
XTAP_104 VGND VPWR sky130_fd_sc_hd__tapvpwrvgnd_1
XFILLER_11_3 VGND VGND VPWR VPWR sky130_fd_sc_hd__fill_1
XFILLER_26_78 VGND VGND VPWR VPWR sky130_fd_sc_hd__decap_6
XFILLER_22_115 VGND VGND VPWR VPWR sky130_fd_sc_hd__fill_1
X_290_ _290_/A VGND VGND VPWR VPWR _486_/D sky130_fd_sc_hd__clkbuf_1
XFILLER_3_27 VGND VGND VPWR VPWR sky130_fd_sc_hd__decap_4
XFILLER_9_108 VGND VGND VPWR VPWR sky130_fd_sc_hd__decap_4
X_488_ _499_/CLK _488_/D _421_/Y VGND VGND VPWR VPWR _488_/Q sky130_fd_sc_hd__dfrtp_1
XFILLER_10_129 VGND VGND VPWR VPWR sky130_fd_sc_hd__fill_1
XFILLER_10_107 VGND VGND VPWR VPWR sky130_fd_sc_hd__decap_4
XFILLER_8_185 VGND VGND VPWR VPWR sky130_fd_sc_hd__fill_2
X_273_ _273_/A VGND VGND VPWR VPWR _491_/D sky130_fd_sc_hd__clkbuf_1
X_411_ _415_/A VGND VGND VPWR VPWR _411_/Y sky130_fd_sc_hd__inv_2
X_342_ _478_/Q _446_/Q _342_/S VGND VGND VPWR VPWR _343_/A sky130_fd_sc_hd__mux2_1
XFILLER_12_47 VGND VGND VPWR VPWR sky130_fd_sc_hd__decap_4
XFILLER_23_57 VGND VGND VPWR VPWR sky130_fd_sc_hd__decap_6
XFILLER_2_103 VGND VGND VPWR VPWR sky130_fd_sc_hd__decap_4
X_325_ _476_/Q _325_/A1 _328_/S VGND VGND VPWR VPWR _325_/X sky130_fd_sc_hd__mux2_1
X_256_ _256_/A VGND VGND VPWR VPWR _496_/D sky130_fd_sc_hd__clkbuf_1
XFILLER_18_24 VGND VGND VPWR VPWR sky130_fd_sc_hd__decap_4
XFILLER_18_13 VGND VGND VPWR VPWR sky130_fd_sc_hd__fill_1
X_308_ _308_/A VGND VGND VPWR VPWR _322_/S sky130_fd_sc_hd__buf_2
X_239_ _239_/A VGND VGND VPWR VPWR _501_/D sky130_fd_sc_hd__clkbuf_1
XFILLER_28_132 VGND VGND VPWR VPWR sky130_fd_sc_hd__decap_8
XFILLER_19_154 VGND VGND VPWR VPWR sky130_fd_sc_hd__decap_4
XFILLER_13_7 VGND VGND VPWR VPWR sky130_fd_sc_hd__decap_4
XFILLER_6_38 VGND VGND VPWR VPWR sky130_fd_sc_hd__decap_4
XFILLER_31_68 VGND VGND VPWR VPWR sky130_fd_sc_hd__decap_4
XFILLER_31_13 VGND VGND VPWR VPWR sky130_fd_sc_hd__decap_4
Xoutput46 _460_/Q VGND VGND VPWR VPWR r_load[18] sky130_fd_sc_hd__buf_2
XFILLER_25_179 VGND VGND VPWR VPWR sky130_fd_sc_hd__decap_8
XFILLER_25_113 VGND VGND VPWR VPWR sky130_fd_sc_hd__decap_3
Xoutput57 _470_/Q VGND VGND VPWR VPWR r_load[28] sky130_fd_sc_hd__buf_2
XFILLER_31_105 VGND VGND VPWR VPWR sky130_fd_sc_hd__decap_6
XTAP_149 VGND VPWR sky130_fd_sc_hd__tapvpwrvgnd_1
XTAP_138 VGND VPWR sky130_fd_sc_hd__tapvpwrvgnd_1
XTAP_127 VGND VPWR sky130_fd_sc_hd__tapvpwrvgnd_1
XTAP_116 VGND VPWR sky130_fd_sc_hd__tapvpwrvgnd_1
XTAP_105 VGND VPWR sky130_fd_sc_hd__tapvpwrvgnd_1
Xoutput68 _451_/Q VGND VGND VPWR VPWR r_load[9] sky130_fd_sc_hd__buf_2
XFILLER_7_92 VGND VGND VPWR VPWR sky130_fd_sc_hd__decap_6
XFILLER_16_90 VGND VGND VPWR VPWR sky130_fd_sc_hd__decap_4
X_487_ _487_/CLK _487_/D _420_/Y VGND VGND VPWR VPWR _487_/Q sky130_fd_sc_hd__dfrtp_1
X_272_ _271_/X _491_/Q _272_/S VGND VGND VPWR VPWR _273_/A sky130_fd_sc_hd__mux2_1
X_341_ _341_/A VGND VGND VPWR VPWR _445_/D sky130_fd_sc_hd__clkbuf_1
X_410_ _441_/A VGND VGND VPWR VPWR _415_/A sky130_fd_sc_hd__buf_2
XFILLER_10_119 VGND VGND VPWR VPWR sky130_fd_sc_hd__fill_1
XFILLER_5_123 VGND VGND VPWR VPWR sky130_fd_sc_hd__decap_8
XFILLER_5_178 VGND VGND VPWR VPWR sky130_fd_sc_hd__decap_8
X_324_ _324_/A VGND VGND VPWR VPWR _476_/D sky130_fd_sc_hd__clkbuf_1
XFILLER_13_80 VGND VGND VPWR VPWR sky130_fd_sc_hd__decap_4
X_255_ _254_/X _496_/Q _255_/S VGND VGND VPWR VPWR _256_/A sky130_fd_sc_hd__mux2_1
XFILLER_18_58 VGND VGND VPWR VPWR sky130_fd_sc_hd__decap_8
X_307_ _307_/A VGND VGND VPWR VPWR _481_/D sky130_fd_sc_hd__clkbuf_1
XFILLER_1_61 VGND VGND VPWR VPWR sky130_fd_sc_hd__fill_1
X_238_ _237_/X _501_/Q _238_/S VGND VGND VPWR VPWR _239_/A sky130_fd_sc_hd__mux2_1
XFILLER_29_57 VGND VGND VPWR VPWR sky130_fd_sc_hd__decap_12
XFILLER_19_111 VGND VGND VPWR VPWR sky130_fd_sc_hd__fill_1
XFILLER_25_169 VGND VGND VPWR VPWR sky130_fd_sc_hd__fill_1
XFILLER_25_158 VGND VGND VPWR VPWR sky130_fd_sc_hd__fill_2
Xoutput47 _461_/Q VGND VGND VPWR VPWR r_load[19] sky130_fd_sc_hd__buf_2
Xoutput69 _474_/Q VGND VGND VPWR VPWR s_out sky130_fd_sc_hd__buf_2
Xoutput58 _471_/Q VGND VGND VPWR VPWR r_load[29] sky130_fd_sc_hd__buf_2
XFILLER_30_183 VGND VGND VPWR VPWR sky130_fd_sc_hd__decap_4
XFILLER_30_161 VGND VGND VPWR VPWR sky130_fd_sc_hd__decap_4
XFILLER_30_150 VGND VGND VPWR VPWR sky130_fd_sc_hd__decap_8
XTAP_139 VGND VPWR sky130_fd_sc_hd__tapvpwrvgnd_1
XTAP_128 VGND VPWR sky130_fd_sc_hd__tapvpwrvgnd_1
XTAP_117 VGND VPWR sky130_fd_sc_hd__tapvpwrvgnd_1
XTAP_106 VGND VPWR sky130_fd_sc_hd__tapvpwrvgnd_1
XPHY_0 VGND VGND VPWR VPWR sky130_fd_sc_hd__decap_3
XFILLER_26_58 VGND VGND VPWR VPWR sky130_fd_sc_hd__decap_4
XFILLER_21_183 VGND VGND VPWR VPWR sky130_fd_sc_hd__decap_4
XFILLER_21_172 VGND VGND VPWR VPWR sky130_fd_sc_hd__decap_6
XFILLER_13_117 VGND VGND VPWR VPWR sky130_fd_sc_hd__decap_4
XFILLER_12_183 VGND VGND VPWR VPWR sky130_fd_sc_hd__decap_4
X_486_ _487_/CLK _486_/D _419_/Y VGND VGND VPWR VPWR _486_/Q sky130_fd_sc_hd__dfrtp_1
XFILLER_12_150 VGND VGND VPWR VPWR sky130_fd_sc_hd__decap_6
X_340_ _477_/Q _445_/Q _342_/S VGND VGND VPWR VPWR _341_/A sky130_fd_sc_hd__mux2_1
X_271_ _492_/Q _271_/A1 _271_/S VGND VGND VPWR VPWR _271_/X sky130_fd_sc_hd__mux2_1
XFILLER_5_102 VGND VGND VPWR VPWR sky130_fd_sc_hd__decap_8
X_469_ _499_/CLK _469_/D VGND VGND VPWR VPWR _469_/Q sky130_fd_sc_hd__dfxtp_1
XFILLER_4_94 VGND VGND VPWR VPWR sky130_fd_sc_hd__fill_1
X_323_ _322_/X _476_/Q _323_/S VGND VGND VPWR VPWR _324_/A sky130_fd_sc_hd__mux2_1
X_254_ _497_/Q _254_/A1 _254_/S VGND VGND VPWR VPWR _254_/X sky130_fd_sc_hd__mux2_1
XFILLER_2_116 VGND VGND VPWR VPWR sky130_fd_sc_hd__decap_12
X_306_ _305_/X _481_/Q _306_/S VGND VGND VPWR VPWR _307_/A sky130_fd_sc_hd__mux2_1
XFILLER_24_80 VGND VGND VPWR VPWR sky130_fd_sc_hd__decap_4
X_237_ _502_/Q _237_/A1 _237_/S VGND VGND VPWR VPWR _237_/X sky130_fd_sc_hd__mux2_1
XFILLER_29_69 VGND VGND VPWR VPWR sky130_fd_sc_hd__decap_12
XFILLER_29_14 VGND VGND VPWR VPWR sky130_fd_sc_hd__decap_12
XFILLER_20_49 VGND VGND VPWR VPWR sky130_fd_sc_hd__decap_8
XFILLER_20_27 VGND VGND VPWR VPWR sky130_fd_sc_hd__fill_1
XFILLER_1_51 VGND VGND VPWR VPWR sky130_fd_sc_hd__decap_4
XFILLER_19_167 VGND VGND VPWR VPWR sky130_fd_sc_hd__fill_1
XFILLER_6_18 VGND VGND VPWR VPWR sky130_fd_sc_hd__decap_8
XFILLER_31_118 VGND VGND VPWR VPWR sky130_fd_sc_hd__decap_4
Xoutput59 _444_/Q VGND VGND VPWR VPWR r_load[2] sky130_fd_sc_hd__buf_2
XFILLER_31_37 VGND VGND VPWR VPWR sky130_fd_sc_hd__fill_1
Xoutput37 _442_/Q VGND VGND VPWR VPWR r_load[0] sky130_fd_sc_hd__buf_2
XFILLER_16_126 VGND VGND VPWR VPWR sky130_fd_sc_hd__fill_1
Xoutput48 _443_/Q VGND VGND VPWR VPWR r_load[1] sky130_fd_sc_hd__buf_2
XFILLER_22_129 VGND VGND VPWR VPWR sky130_fd_sc_hd__decap_4
XTAP_129 VGND VPWR sky130_fd_sc_hd__tapvpwrvgnd_1
XTAP_118 VGND VPWR sky130_fd_sc_hd__tapvpwrvgnd_1
XTAP_107 VGND VPWR sky130_fd_sc_hd__tapvpwrvgnd_1
XPHY_1 VGND VGND VPWR VPWR sky130_fd_sc_hd__decap_3
XFILLER_26_26 VGND VGND VPWR VPWR sky130_fd_sc_hd__fill_2
Xclkbuf_2_3_0_clk clkbuf_2_3_0_clk/A VGND VGND VPWR VPWR clkbuf_3_7_0_clk/A sky130_fd_sc_hd__clkbuf_2
X_485_ _487_/CLK _485_/D _418_/Y VGND VGND VPWR VPWR _485_/Q sky130_fd_sc_hd__dfrtp_1
XFILLER_8_144 VGND VGND VPWR VPWR sky130_fd_sc_hd__decap_6
XFILLER_8_177 VGND VGND VPWR VPWR sky130_fd_sc_hd__decap_8
X_270_ _270_/A VGND VGND VPWR VPWR _492_/D sky130_fd_sc_hd__clkbuf_1
XFILLER_5_147 VGND VGND VPWR VPWR sky130_fd_sc_hd__decap_12
XFILLER_27_91 VGND VGND VPWR VPWR sky130_fd_sc_hd__decap_12
X_399_ _504_/Q _472_/Q _401_/S VGND VGND VPWR VPWR _400_/A sky130_fd_sc_hd__mux2_1
X_468_ _505_/CLK _468_/D VGND VGND VPWR VPWR _468_/Q sky130_fd_sc_hd__dfxtp_1
XFILLER_23_49 VGND VGND VPWR VPWR sky130_fd_sc_hd__decap_6
X_322_ _477_/Q _322_/A1 _322_/S VGND VGND VPWR VPWR _322_/X sky130_fd_sc_hd__mux2_1
XFILLER_2_128 VGND VGND VPWR VPWR sky130_fd_sc_hd__decap_12
XFILLER_29_7 VGND VGND VPWR VPWR sky130_fd_sc_hd__decap_4
X_253_ _253_/A VGND VGND VPWR VPWR _497_/D sky130_fd_sc_hd__clkbuf_1
XFILLER_1_183 VGND VGND VPWR VPWR sky130_fd_sc_hd__decap_4
X_305_ _482_/Q _305_/A1 _305_/S VGND VGND VPWR VPWR _305_/X sky130_fd_sc_hd__mux2_1
X_236_ _236_/A VGND VGND VPWR VPWR _502_/D sky130_fd_sc_hd__clkbuf_1
XFILLER_29_26 VGND VGND VPWR VPWR sky130_fd_sc_hd__decap_12
XFILLER_1_85 VGND VGND VPWR VPWR sky130_fd_sc_hd__decap_6
XFILLER_19_113 VGND VGND VPWR VPWR sky130_fd_sc_hd__decap_6
XFILLER_10_83 VGND VGND VPWR VPWR sky130_fd_sc_hd__fill_1
XFILLER_19_179 VGND VGND VPWR VPWR sky130_fd_sc_hd__decap_8
XFILLER_19_92 VGND VGND VPWR VPWR sky130_fd_sc_hd__decap_4
Xoutput49 _462_/Q VGND VGND VPWR VPWR r_load[20] sky130_fd_sc_hd__buf_2
XFILLER_31_27 VGND VGND VPWR VPWR sky130_fd_sc_hd__fill_1
Xoutput38 _452_/Q VGND VGND VPWR VPWR r_load[10] sky130_fd_sc_hd__buf_2
XTAP_119 VGND VPWR sky130_fd_sc_hd__tapvpwrvgnd_1
Xclkbuf_0_clk clk VGND VGND VPWR VPWR clkbuf_0_clk/X sky130_fd_sc_hd__clkbuf_16
XTAP_108 VGND VPWR sky130_fd_sc_hd__tapvpwrvgnd_1
XFILLER_11_7 VGND VGND VPWR VPWR sky130_fd_sc_hd__decap_4
XPHY_2 VGND VGND VPWR VPWR sky130_fd_sc_hd__decap_3
XFILLER_30_141 VGND VGND VPWR VPWR sky130_fd_sc_hd__decap_6
XFILLER_13_108 VGND VGND VPWR VPWR sky130_fd_sc_hd__decap_4
XFILLER_7_73 VGND VGND VPWR VPWR sky130_fd_sc_hd__fill_2
XFILLER_7_84 VGND VGND VPWR VPWR sky130_fd_sc_hd__decap_4
XFILLER_12_130 VGND VGND VPWR VPWR sky130_fd_sc_hd__decap_8
X_484_ _487_/CLK _484_/D _417_/Y VGND VGND VPWR VPWR _484_/Q sky130_fd_sc_hd__dfrtp_1
XFILLER_8_101 VGND VGND VPWR VPWR sky130_fd_sc_hd__decap_4
XFILLER_8_123 VGND VGND VPWR VPWR sky130_fd_sc_hd__decap_4
XFILLER_12_29 VGND VGND VPWR VPWR sky130_fd_sc_hd__fill_2
XFILLER_5_159 VGND VGND VPWR VPWR sky130_fd_sc_hd__fill_2
X_398_ _398_/A VGND VGND VPWR VPWR _471_/D sky130_fd_sc_hd__clkbuf_1
X_467_ _499_/CLK _467_/D VGND VGND VPWR VPWR _467_/Q sky130_fd_sc_hd__dfxtp_1
Xclkbuf_2_2_0_clk clkbuf_2_3_0_clk/A VGND VGND VPWR VPWR clkbuf_3_5_0_clk/A sky130_fd_sc_hd__clkbuf_2
X_321_ _321_/A VGND VGND VPWR VPWR _477_/D sky130_fd_sc_hd__clkbuf_1
XFILLER_9_19 VGND VGND VPWR VPWR sky130_fd_sc_hd__decap_8
X_252_ _251_/X _497_/Q _255_/S VGND VGND VPWR VPWR _253_/A sky130_fd_sc_hd__mux2_1
XFILLER_18_17 VGND VGND VPWR VPWR sky130_fd_sc_hd__decap_4
X_304_ _304_/A VGND VGND VPWR VPWR _482_/D sky130_fd_sc_hd__clkbuf_1
X_235_ _234_/X _502_/Q _238_/S VGND VGND VPWR VPWR _236_/A sky130_fd_sc_hd__mux2_1
XFILLER_1_20 VGND VGND VPWR VPWR sky130_fd_sc_hd__decap_4
XFILLER_29_38 VGND VGND VPWR VPWR sky130_fd_sc_hd__decap_12
XFILLER_10_62 VGND VGND VPWR VPWR sky130_fd_sc_hd__decap_8
Xoutput39 _453_/Q VGND VGND VPWR VPWR r_load[11] sky130_fd_sc_hd__buf_2
XFILLER_24_183 VGND VGND VPWR VPWR sky130_fd_sc_hd__decap_4
XFILLER_24_150 VGND VGND VPWR VPWR sky130_fd_sc_hd__decap_4
XFILLER_21_94 VGND VGND VPWR VPWR sky130_fd_sc_hd__decap_6
XFILLER_21_61 VGND VGND VPWR VPWR sky130_fd_sc_hd__decap_4
XFILLER_16_139 VGND VGND VPWR VPWR sky130_fd_sc_hd__fill_1
XTAP_109 VGND VPWR sky130_fd_sc_hd__tapvpwrvgnd_1
XFILLER_22_109 VGND VGND VPWR VPWR sky130_fd_sc_hd__decap_6
XFILLER_15_183 VGND VGND VPWR VPWR sky130_fd_sc_hd__decap_4
XPHY_3 VGND VGND VPWR VPWR sky130_fd_sc_hd__decap_3
XFILLER_7_52 VGND VGND VPWR VPWR sky130_fd_sc_hd__decap_4
X_483_ _490_/CLK _483_/D _415_/Y VGND VGND VPWR VPWR _483_/Q sky130_fd_sc_hd__dfrtp_1
XFILLER_21_131 VGND VGND VPWR VPWR sky130_fd_sc_hd__decap_4
XFILLER_5_116 VGND VGND VPWR VPWR sky130_fd_sc_hd__decap_4
X_466_ _495_/CLK _466_/D VGND VGND VPWR VPWR _466_/Q sky130_fd_sc_hd__dfxtp_1
X_397_ _503_/Q _471_/Q _397_/S VGND VGND VPWR VPWR _398_/A sky130_fd_sc_hd__mux2_1
XFILLER_4_182 VGND VGND VPWR VPWR sky130_fd_sc_hd__decap_4
X_320_ _319_/X _477_/Q _323_/S VGND VGND VPWR VPWR _321_/A sky130_fd_sc_hd__mux2_1
X_251_ _498_/Q _251_/A1 _254_/S VGND VGND VPWR VPWR _251_/X sky130_fd_sc_hd__mux2_1
X_449_ _495_/CLK _449_/D VGND VGND VPWR VPWR _449_/Q sky130_fd_sc_hd__dfxtp_1
XFILLER_18_29 VGND VGND VPWR VPWR sky130_fd_sc_hd__fill_1
X_303_ _302_/X _482_/Q _306_/S VGND VGND VPWR VPWR _304_/A sky130_fd_sc_hd__mux2_1
XFILLER_24_72 VGND VGND VPWR VPWR sky130_fd_sc_hd__decap_4
Xclkbuf_2_1_0_clk clkbuf_2_1_0_clk/A VGND VGND VPWR VPWR clkbuf_3_3_0_clk/A sky130_fd_sc_hd__clkbuf_2
XFILLER_1_65 VGND VGND VPWR VPWR sky130_fd_sc_hd__decap_4
X_234_ _503_/Q _234_/A1 _237_/S VGND VGND VPWR VPWR _234_/X sky130_fd_sc_hd__mux2_1
XFILLER_28_115 VGND VGND VPWR VPWR sky130_fd_sc_hd__decap_8
XFILLER_19_83 VGND VGND VPWR VPWR sky130_fd_sc_hd__decap_6
XFILLER_10_85 VGND VGND VPWR VPWR sky130_fd_sc_hd__fill_2
XFILLER_16_118 VGND VGND VPWR VPWR sky130_fd_sc_hd__decap_8
XFILLER_30_121 VGND VGND VPWR VPWR sky130_fd_sc_hd__decap_12
XPHY_4 VGND VGND VPWR VPWR sky130_fd_sc_hd__decap_3
XFILLER_7_31 VGND VGND VPWR VPWR sky130_fd_sc_hd__decap_4
XFILLER_26_29 VGND VGND VPWR VPWR sky130_fd_sc_hd__decap_12
XFILLER_26_18 VGND VGND VPWR VPWR sky130_fd_sc_hd__decap_8
X_482_ _490_/CLK _482_/D _414_/Y VGND VGND VPWR VPWR _482_/Q sky130_fd_sc_hd__dfrtp_1
XFILLER_16_62 VGND VGND VPWR VPWR sky130_fd_sc_hd__decap_6
XFILLER_12_176 VGND VGND VPWR VPWR sky130_fd_sc_hd__decap_4
XFILLER_8_114 VGND VGND VPWR VPWR sky130_fd_sc_hd__decap_4
XFILLER_8_136 VGND VGND VPWR VPWR sky130_fd_sc_hd__decap_4
XFILLER_7_180 VGND VGND VPWR VPWR sky130_fd_sc_hd__decap_6
X_465_ _505_/CLK _465_/D VGND VGND VPWR VPWR _465_/Q sky130_fd_sc_hd__dfxtp_1
X_396_ _396_/A VGND VGND VPWR VPWR _470_/D sky130_fd_sc_hd__clkbuf_1
XFILLER_23_19 VGND VGND VPWR VPWR sky130_fd_sc_hd__decap_6
XFILLER_4_43 VGND VGND VPWR VPWR sky130_fd_sc_hd__decap_4
X_250_ _250_/A VGND VGND VPWR VPWR _498_/D sky130_fd_sc_hd__clkbuf_1
X_379_ _379_/A VGND VGND VPWR VPWR _462_/D sky130_fd_sc_hd__clkbuf_1
X_448_ _490_/CLK _448_/D VGND VGND VPWR VPWR _448_/Q sky130_fd_sc_hd__dfxtp_1
XFILLER_1_175 VGND VGND VPWR VPWR sky130_fd_sc_hd__decap_4
XFILLER_1_164 VGND VGND VPWR VPWR sky130_fd_sc_hd__decap_4
X_302_ _483_/Q _302_/A1 _305_/S VGND VGND VPWR VPWR _302_/X sky130_fd_sc_hd__mux2_1
XFILLER_27_7 VGND VGND VPWR VPWR sky130_fd_sc_hd__decap_12
XFILLER_1_55 VGND VGND VPWR VPWR sky130_fd_sc_hd__fill_1
X_233_ _233_/A VGND VGND VPWR VPWR _503_/D sky130_fd_sc_hd__clkbuf_1
XFILLER_19_105 VGND VGND VPWR VPWR sky130_fd_sc_hd__decap_6
XFILLER_19_40 VGND VGND VPWR VPWR sky130_fd_sc_hd__decap_8
XFILLER_10_42 VGND VGND VPWR VPWR sky130_fd_sc_hd__decap_4
XFILLER_25_119 VGND VGND VPWR VPWR sky130_fd_sc_hd__decap_4
XFILLER_25_108 VGND VGND VPWR VPWR sky130_fd_sc_hd__decap_4
XFILLER_24_163 VGND VGND VPWR VPWR sky130_fd_sc_hd__decap_4
XFILLER_21_74 VGND VGND VPWR VPWR sky130_fd_sc_hd__decap_4
XFILLER_21_52 VGND VGND VPWR VPWR sky130_fd_sc_hd__decap_4
Xclkbuf_2_0_0_clk clkbuf_2_1_0_clk/A VGND VGND VPWR VPWR clkbuf_3_1_0_clk/A sky130_fd_sc_hd__clkbuf_2
XPHY_5 VGND VGND VPWR VPWR sky130_fd_sc_hd__decap_3
XFILLER_7_65 VGND VGND VPWR VPWR sky130_fd_sc_hd__decap_8
XFILLER_7_98 VGND VGND VPWR VPWR sky130_fd_sc_hd__fill_1
XFILLER_21_166 VGND VGND VPWR VPWR sky130_fd_sc_hd__fill_2
X_481_ _490_/CLK _481_/D _413_/Y VGND VGND VPWR VPWR _481_/Q sky130_fd_sc_hd__dfrtp_1
XFILLER_16_85 VGND VGND VPWR VPWR sky130_fd_sc_hd__fill_1
XFILLER_27_84 VGND VGND VPWR VPWR sky130_fd_sc_hd__decap_4
X_464_ _504_/CLK _464_/D VGND VGND VPWR VPWR _464_/Q sky130_fd_sc_hd__dfxtp_1
XFILLER_4_33 VGND VGND VPWR VPWR sky130_fd_sc_hd__fill_1
XFILLER_4_88 VGND VGND VPWR VPWR sky130_fd_sc_hd__decap_6
X_395_ _502_/Q _470_/Q _397_/S VGND VGND VPWR VPWR _396_/A sky130_fd_sc_hd__mux2_1
X_447_ _490_/CLK _447_/D VGND VGND VPWR VPWR _447_/Q sky130_fd_sc_hd__dfxtp_1
X_378_ _494_/Q _462_/Q _386_/S VGND VGND VPWR VPWR _379_/A sky130_fd_sc_hd__mux2_1
X_301_ _301_/A VGND VGND VPWR VPWR _483_/D sky130_fd_sc_hd__clkbuf_1
X_232_ _231_/X _503_/Q _238_/S VGND VGND VPWR VPWR _233_/A sky130_fd_sc_hd__mux2_1
XFILLER_19_128 VGND VGND VPWR VPWR sky130_fd_sc_hd__decap_4
XFILLER_19_52 VGND VGND VPWR VPWR sky130_fd_sc_hd__decap_4
XFILLER_10_21 VGND VGND VPWR VPWR sky130_fd_sc_hd__decap_6
XFILLER_10_32 VGND VGND VPWR VPWR sky130_fd_sc_hd__decap_6
XFILLER_18_161 VGND VGND VPWR VPWR sky130_fd_sc_hd__fill_1
XFILLER_15_175 VGND VGND VPWR VPWR sky130_fd_sc_hd__decap_4
XFILLER_15_164 VGND VGND VPWR VPWR sky130_fd_sc_hd__decap_4
XFILLER_15_142 VGND VGND VPWR VPWR sky130_fd_sc_hd__decap_6
XPHY_6 VGND VGND VPWR VPWR sky130_fd_sc_hd__decap_3
XFILLER_7_44 VGND VGND VPWR VPWR sky130_fd_sc_hd__decap_4
XFILLER_21_178 VGND VGND VPWR VPWR sky130_fd_sc_hd__fill_1
X_480_ _490_/CLK _480_/D _412_/Y VGND VGND VPWR VPWR _480_/Q sky130_fd_sc_hd__dfrtp_1
X_463_ _499_/CLK _463_/D VGND VGND VPWR VPWR _463_/Q sky130_fd_sc_hd__dfxtp_1
X_394_ _394_/A VGND VGND VPWR VPWR _469_/D sky130_fd_sc_hd__clkbuf_1
XFILLER_4_67 VGND VGND VPWR VPWR sky130_fd_sc_hd__decap_4
XFILLER_4_141 VGND VGND VPWR VPWR sky130_fd_sc_hd__decap_12
X_377_ _388_/A VGND VGND VPWR VPWR _386_/S sky130_fd_sc_hd__buf_2
XFILLER_13_54 VGND VGND VPWR VPWR sky130_fd_sc_hd__fill_2
X_446_ _505_/CLK _446_/D VGND VGND VPWR VPWR _446_/Q sky130_fd_sc_hd__dfxtp_1
XFILLER_13_21 VGND VGND VPWR VPWR sky130_fd_sc_hd__decap_8
X_300_ _299_/X _483_/Q _306_/S VGND VGND VPWR VPWR _301_/A sky130_fd_sc_hd__mux2_1
X_231_ _504_/Q _231_/A1 _237_/S VGND VGND VPWR VPWR _231_/X sky130_fd_sc_hd__mux2_1
X_429_ _433_/A VGND VGND VPWR VPWR _429_/Y sky130_fd_sc_hd__inv_2
XFILLER_1_57 VGND VGND VPWR VPWR sky130_fd_sc_hd__decap_4
XFILLER_1_13 VGND VGND VPWR VPWR sky130_fd_sc_hd__decap_4
Xinput1 load VGND VGND VPWR VPWR _310_/A sky130_fd_sc_hd__clkbuf_2
XTAP_90 VGND VPWR sky130_fd_sc_hd__tapvpwrvgnd_1
XFILLER_24_132 VGND VGND VPWR VPWR sky130_fd_sc_hd__decap_8
XFILLER_21_87 VGND VGND VPWR VPWR sky130_fd_sc_hd__decap_4
XPHY_7 VGND VGND VPWR VPWR sky130_fd_sc_hd__decap_3
XFILLER_21_113 VGND VGND VPWR VPWR sky130_fd_sc_hd__fill_2
XFILLER_12_102 VGND VGND VPWR VPWR sky130_fd_sc_hd__decap_4
XFILLER_27_31 VGND VGND VPWR VPWR sky130_fd_sc_hd__decap_12
X_462_ _494_/CLK _462_/D VGND VGND VPWR VPWR _462_/Q sky130_fd_sc_hd__dfxtp_1
X_393_ _501_/Q _469_/Q _397_/S VGND VGND VPWR VPWR _394_/A sky130_fd_sc_hd__mux2_1
XFILLER_4_153 VGND VGND VPWR VPWR sky130_fd_sc_hd__decap_12
XFILLER_4_186 VGND VGND VPWR VPWR sky130_fd_sc_hd__fill_1
XFILLER_13_88 VGND VGND VPWR VPWR sky130_fd_sc_hd__decap_4
X_445_ _478_/CLK _445_/D VGND VGND VPWR VPWR _445_/Q sky130_fd_sc_hd__dfxtp_1
X_376_ _376_/A VGND VGND VPWR VPWR _461_/D sky130_fd_sc_hd__clkbuf_1