*SPEF "ieee 1481-1999"
*DESIGN "shiftregister"
*DATE "11:11:11 Fri 11 11, 1111"
*VENDOR "OpenRCX"
*PROGRAM "Parallel Extraction"
*VERSION "1.0"
*DESIGN_FLOW "NAME_SCOPE LOCAL" "PIN_CAP NONE"
*DIVIDER /
*DELIMITER :
*BUS_DELIMITER []
*T_UNIT 1 NS
*C_UNIT 1 PF
*R_UNIT 1 OHM
*L_UNIT 1 HENRY

*NAME_MAP
*3 clk
*4 load
*5 r_load[0]
*6 r_load[10]
*7 r_load[11]
*8 r_load[12]
*9 r_load[13]
*10 r_load[14]
*11 r_load[15]
*12 r_load[16]
*13 r_load[17]
*14 r_load[18]
*15 r_load[19]
*16 r_load[1]
*17 r_load[20]
*18 r_load[21]
*19 r_load[22]
*20 r_load[23]
*21 r_load[24]
*22 r_load[25]
*23 r_load[26]
*24 r_load[27]
*25 r_load[28]
*26 r_load[29]
*27 r_load[2]
*28 r_load[30]
*29 r_load[31]
*30 r_load[32]
*31 r_load[33]
*32 r_load[34]
*33 r_load[35]
*34 r_load[36]
*35 r_load[37]
*36 r_load[38]
*37 r_load[39]
*38 r_load[3]
*39 r_load[40]
*40 r_load[41]
*41 r_load[42]
*42 r_load[43]
*43 r_load[44]
*44 r_load[45]
*45 r_load[46]
*46 r_load[47]
*47 r_load[48]
*48 r_load[49]
*49 r_load[4]
*50 r_load[50]
*51 r_load[51]
*52 r_load[52]
*53 r_load[53]
*54 r_load[54]
*55 r_load[55]
*56 r_load[56]
*57 r_load[57]
*58 r_load[58]
*59 r_load[59]
*60 r_load[5]
*61 r_load[60]
*62 r_load[61]
*63 r_load[62]
*64 r_load[63]
*65 r_load[64]
*66 r_load[65]
*67 r_load[66]
*68 r_load[67]
*69 r_load[68]
*70 r_load[69]
*71 r_load[6]
*72 r_load[70]
*73 r_load[71]
*74 r_load[72]
*75 r_load[73]
*76 r_load[74]
*77 r_load[75]
*78 r_load[76]
*79 r_load[77]
*80 r_load[78]
*81 r_load[79]
*82 r_load[7]
*83 r_load[80]
*84 r_load[81]
*85 r_load[82]
*86 r_load[83]
*87 r_load[84]
*88 r_load[85]
*89 r_load[86]
*90 r_load[87]
*91 r_load[88]
*92 r_load[89]
*93 r_load[8]
*94 r_load[90]
*95 r_load[91]
*96 r_load[92]
*97 r_load[93]
*98 r_load[94]
*99 r_load[95]
*100 r_load[96]
*101 r_load[97]
*102 r_load[98]
*103 r_load[99]
*104 r_load[9]
*105 r_read[0]
*106 r_read[10]
*107 r_read[11]
*108 r_read[12]
*109 r_read[13]
*110 r_read[14]
*111 r_read[15]
*112 r_read[16]
*113 r_read[17]
*114 r_read[18]
*115 r_read[19]
*116 r_read[1]
*117 r_read[20]
*118 r_read[21]
*119 r_read[22]
*120 r_read[23]
*121 r_read[24]
*122 r_read[25]
*123 r_read[26]
*124 r_read[27]
*125 r_read[28]
*126 r_read[29]
*127 r_read[2]
*128 r_read[30]
*129 r_read[31]
*130 r_read[32]
*131 r_read[33]
*132 r_read[34]
*133 r_read[35]
*134 r_read[36]
*135 r_read[37]
*136 r_read[38]
*137 r_read[39]
*138 r_read[3]
*139 r_read[40]
*140 r_read[41]
*141 r_read[42]
*142 r_read[43]
*143 r_read[44]
*144 r_read[45]
*145 r_read[46]
*146 r_read[47]
*147 r_read[48]
*148 r_read[49]
*149 r_read[4]
*150 r_read[50]
*151 r_read[51]
*152 r_read[52]
*153 r_read[53]
*154 r_read[54]
*155 r_read[55]
*156 r_read[56]
*157 r_read[57]
*158 r_read[58]
*159 r_read[59]
*160 r_read[5]
*161 r_read[60]
*162 r_read[61]
*163 r_read[62]
*164 r_read[63]
*165 r_read[64]
*166 r_read[65]
*167 r_read[66]
*168 r_read[67]
*169 r_read[68]
*170 r_read[69]
*171 r_read[6]
*172 r_read[70]
*173 r_read[71]
*174 r_read[72]
*175 r_read[73]
*176 r_read[74]
*177 r_read[75]
*178 r_read[76]
*179 r_read[77]
*180 r_read[78]
*181 r_read[79]
*182 r_read[7]
*183 r_read[80]
*184 r_read[81]
*185 r_read[82]
*186 r_read[83]
*187 r_read[84]
*188 r_read[85]
*189 r_read[86]
*190 r_read[87]
*191 r_read[88]
*192 r_read[89]
*193 r_read[8]
*194 r_read[90]
*195 r_read[91]
*196 r_read[92]
*197 r_read[93]
*198 r_read[94]
*199 r_read[95]
*200 r_read[96]
*201 r_read[97]
*202 r_read[98]
*203 r_read[99]
*204 r_read[9]
*205 read
*206 reset
*207 s_in
*208 s_out
*209 _0000_
*210 _0001_
*211 _0002_
*212 _0003_
*213 _0004_
*214 _0005_
*215 _0006_
*216 _0007_
*217 _0008_
*218 _0009_
*219 _0010_
*220 _0011_
*221 _0012_
*222 _0013_
*223 _0014_
*224 _0015_
*225 _0016_
*226 _0017_
*227 _0018_
*228 _0019_
*229 _0020_
*230 _0021_
*231 _0022_
*232 _0023_
*233 _0024_
*234 _0025_
*235 _0026_
*236 _0027_
*237 _0028_
*238 _0029_
*239 _0030_
*240 _0031_
*241 _0032_
*242 _0033_
*243 _0034_
*244 _0035_
*245 _0036_
*246 _0037_
*247 _0038_
*248 _0039_
*249 _0040_
*250 _0041_
*251 _0042_
*252 _0043_
*253 _0044_
*254 _0045_
*255 _0046_
*256 _0047_
*257 _0048_
*258 _0049_
*259 _0050_
*260 _0051_
*261 _0052_
*262 _0053_
*263 _0054_
*264 _0055_
*265 _0056_
*266 _0057_
*267 _0058_
*268 _0059_
*269 _0060_
*270 _0061_
*271 _0062_
*272 _0063_
*273 _0064_
*274 _0065_
*275 _0066_
*276 _0067_
*277 _0068_
*278 _0069_
*279 _0070_
*280 _0071_
*281 _0072_
*282 _0073_
*283 _0074_
*284 _0075_
*285 _0076_
*286 _0077_
*287 _0078_
*288 _0079_
*289 _0080_
*290 _0081_
*291 _0082_
*292 _0083_
*293 _0084_
*294 _0085_
*295 _0086_
*296 _0087_
*297 _0088_
*298 _0089_
*299 _0090_
*300 _0091_
*301 _0092_
*302 _0093_
*303 _0094_
*304 _0095_
*305 _0096_
*306 _0097_
*307 _0098_
*308 _0099_
*309 _0100_
*310 _0101_
*311 _0102_
*312 _0103_
*313 _0104_
*314 _0105_
*315 _0106_
*316 _0107_
*317 _0108_
*318 _0109_
*319 _0110_
*320 _0111_
*321 _0112_
*322 _0113_
*323 _0114_
*324 _0115_
*325 _0116_
*326 _0117_
*327 _0118_
*328 _0119_
*329 _0120_
*330 _0121_
*331 _0122_
*332 _0123_
*333 _0124_
*334 _0125_
*335 _0126_
*336 _0127_
*337 _0128_
*338 _0129_
*339 _0130_
*340 _0131_
*341 _0132_
*342 _0133_
*343 _0134_
*344 _0135_
*345 _0136_
*346 _0137_
*347 _0138_
*348 _0139_
*349 _0140_
*350 _0141_
*351 _0142_
*352 _0143_
*353 _0144_
*354 _0145_
*355 _0146_
*356 _0147_
*357 _0148_
*358 _0149_
*359 _0150_
*360 _0151_
*361 _0152_
*362 _0153_
*363 _0154_
*364 _0155_
*365 _0156_
*366 _0157_
*367 _0158_
*368 _0159_
*369 _0160_
*370 _0161_
*371 _0162_
*372 _0163_
*373 _0164_
*374 _0165_
*375 _0166_
*376 _0167_
*377 _0168_
*378 _0169_
*379 _0170_
*380 _0171_
*381 _0172_
*382 _0173_
*383 _0174_
*384 _0175_
*385 _0176_
*386 _0177_
*387 _0178_
*388 _0179_
*389 _0180_
*390 _0181_
*391 _0182_
*392 _0183_
*393 _0184_
*394 _0185_
*395 _0186_
*396 _0187_
*397 _0188_
*398 _0189_
*399 _0190_
*400 _0191_
*401 _0192_
*402 _0193_
*403 _0194_
*404 _0195_
*405 _0196_
*406 _0197_
*407 _0198_
*408 _0199_
*409 _0200_
*410 _0201_
*411 _0202_
*412 _0203_
*413 _0204_
*414 _0205_
*415 _0206_
*416 _0207_
*417 _0208_
*418 _0209_
*419 _0210_
*420 _0211_
*421 _0212_
*422 _0213_
*423 _0214_
*424 _0215_
*425 _0216_
*426 _0217_
*427 _0218_
*428 _0219_
*429 _0220_
*430 _0221_
*431 _0222_
*432 _0223_
*433 _0224_
*434 _0225_
*435 _0226_
*436 _0227_
*437 _0228_
*438 _0229_
*439 _0230_
*440 _0231_
*441 _0232_
*442 _0233_
*443 _0234_
*444 _0235_
*445 _0236_
*446 _0237_
*447 _0238_
*448 _0239_
*449 _0240_
*450 _0241_
*451 _0242_
*452 _0243_
*453 _0244_
*454 _0245_
*455 _0246_
*456 _0247_
*457 _0248_
*458 _0249_
*459 _0250_
*460 _0251_
*461 _0252_
*462 _0253_
*463 _0254_
*464 _0255_
*465 _0256_
*466 _0257_
*467 _0258_
*468 _0259_
*469 _0260_
*470 _0261_
*471 _0262_
*472 _0263_
*473 _0264_
*474 _0265_
*475 _0266_
*476 _0267_
*477 _0268_
*478 _0269_
*479 _0270_
*480 _0271_
*481 _0272_
*482 _0273_
*483 _0274_
*484 _0275_
*485 _0276_
*486 _0277_
*487 _0278_
*488 _0279_
*489 _0280_
*490 _0281_
*491 _0282_
*492 _0283_
*493 _0284_
*494 _0285_
*495 _0286_
*496 _0287_
*497 _0288_
*498 _0289_
*499 _0290_
*500 _0291_
*501 _0292_
*502 _0293_
*503 _0294_
*504 _0295_
*505 _0296_
*506 _0297_
*507 _0298_
*508 _0299_
*509 _0300_
*510 _0301_
*511 _0302_
*512 _0303_
*513 _0304_
*514 _0305_
*515 _0306_
*516 _0307_
*517 _0308_
*518 _0309_
*519 _0310_
*520 _0311_
*521 _0312_
*522 _0313_
*523 _0314_
*524 _0315_
*525 _0316_
*526 _0317_
*527 _0318_
*528 _0319_
*529 _0320_
*530 _0321_
*531 _0322_
*532 _0323_
*533 _0324_
*534 _0325_
*535 _0326_
*536 _0327_
*537 _0328_
*538 _0329_
*539 _0330_
*540 _0331_
*541 _0332_
*542 _0333_
*543 _0334_
*544 _0335_
*545 _0336_
*546 _0337_
*547 _0338_
*548 _0339_
*549 _0340_
*550 _0341_
*551 _0342_
*552 _0343_
*553 _0344_
*554 _0345_
*555 _0346_
*556 _0347_
*557 _0348_
*558 _0349_
*559 _0350_
*560 _0351_
*561 _0352_
*562 _0353_
*563 _0354_
*564 _0355_
*565 _0356_
*566 _0357_
*567 _0358_
*568 _0359_
*569 _0360_
*570 _0361_
*571 _0362_
*572 _0363_
*573 _0364_
*574 _0365_
*575 _0366_
*576 _0367_
*577 _0368_
*578 _0369_
*579 _0370_
*580 _0371_
*581 _0372_
*582 _0373_
*583 _0374_
*584 _0375_
*585 _0376_
*586 _0377_
*587 _0378_
*588 _0379_
*589 _0380_
*590 _0381_
*591 _0382_
*592 _0383_
*593 _0384_
*594 _0385_
*595 _0386_
*596 _0387_
*597 _0388_
*598 _0389_
*599 _0390_
*600 _0391_
*601 _0392_
*602 _0393_
*603 _0394_
*604 _0395_
*605 _0396_
*606 _0397_
*607 _0398_
*608 _0399_
*609 _0400_
*610 _0401_
*611 _0402_
*612 _0403_
*613 _0404_
*614 _0405_
*615 _0406_
*616 _0407_
*617 _0408_
*618 _0409_
*619 _0410_
*620 _0411_
*621 _0412_
*622 _0413_
*623 _0414_
*624 _0415_
*625 _0416_
*626 _0417_
*627 _0418_
*628 _0419_
*629 _0420_
*630 _0421_
*631 _0422_
*632 _0423_
*633 _0424_
*634 _0425_
*635 _0426_
*636 _0427_
*637 _0428_
*638 _0429_
*639 _0430_
*640 _0431_
*641 _0432_
*642 _0433_
*643 _0434_
*644 _0435_
*645 _0436_
*646 _0437_
*647 _0438_
*648 _0439_
*649 _0440_
*650 _0441_
*651 _0442_
*652 _0443_
*653 _0444_
*654 _0445_
*655 _0446_
*656 _0447_
*657 _0448_
*658 _0449_
*659 _0450_
*660 _0451_
*661 _0452_
*662 _0453_
*663 _0454_
*664 _0455_
*665 _0456_
*666 _0457_
*667 _0458_
*668 _0459_
*669 _0460_
*670 _0461_
*671 _0462_
*672 _0463_
*673 _0464_
*674 _0465_
*675 _0466_
*676 _0467_
*677 _0468_
*678 _0469_
*679 _0470_
*680 _0471_
*681 _0472_
*682 _0473_
*683 _0474_
*684 _0475_
*685 _0476_
*686 _0477_
*687 _0478_
*688 _0479_
*689 _0480_
*690 _0481_
*691 _0482_
*692 _0483_
*693 _0484_
*694 _0485_
*695 _0486_
*696 _0487_
*697 _0488_
*698 _0489_
*699 _0490_
*700 _0491_
*701 _0492_
*702 _0493_
*703 _0494_
*704 _0495_
*705 _0496_
*706 _0497_
*707 _0498_
*708 _0499_
*709 _0500_
*710 _0501_
*711 _0502_
*712 _0503_
*713 _0504_
*714 _0505_
*715 _0506_
*716 _0507_
*717 _0508_
*718 _0509_
*719 _0510_
*720 _0511_
*721 _0512_
*722 _0513_
*723 _0514_
*724 _0515_
*725 _0516_
*726 _0517_
*727 _0518_
*728 _0519_
*729 _0520_
*730 _0521_
*731 _0522_
*732 _0523_
*733 _0524_
*734 _0525_
*735 _0526_
*736 _0527_
*737 _0528_
*738 _0529_
*739 _0530_
*740 _0531_
*741 _0532_
*742 _0533_
*743 _0534_
*744 _0535_
*745 _0536_
*746 _0537_
*747 _0538_
*748 _0539_
*749 _0540_
*750 _0541_
*751 _0542_
*752 _0543_
*753 _0544_
*754 _0545_
*755 _0546_
*756 _0547_
*757 _0548_
*758 _0549_
*759 _0550_
*760 _0551_
*761 _0552_
*762 _0553_
*763 _0554_
*764 _0555_
*765 _0556_
*766 _0557_
*767 _0558_
*768 _0559_
*769 _0560_
*770 _0561_
*771 _0562_
*772 _0563_
*773 _0564_
*774 _0565_
*775 _0566_
*776 _0567_
*777 _0568_
*778 _0569_
*779 _0570_
*780 _0571_
*781 _0572_
*782 _0573_
*783 _0574_
*784 _0575_
*785 _0576_
*786 _0577_
*787 _0578_
*788 _0579_
*789 _0580_
*790 _0581_
*791 _0582_
*792 _0583_
*793 _0584_
*794 _0585_
*795 _0586_
*796 _0587_
*797 _0588_
*798 _0589_
*799 _0590_
*800 _0591_
*801 _0592_
*802 _0593_
*803 _0594_
*804 _0595_
*805 _0596_
*806 _0597_
*807 _0598_
*808 _0599_
*809 _0600_
*810 _0601_
*811 _0602_
*812 _0603_
*813 _0604_
*814 _0605_
*815 _0606_
*816 _0607_
*817 _0608_
*818 _0609_
*819 _0610_
*820 _0611_
*821 _0612_
*822 _0613_
*823 _0614_
*824 _0615_
*825 _0616_
*826 _0617_
*827 _0618_
*828 _0619_
*829 _0620_
*830 _0621_
*831 _0622_
*832 _0623_
*833 _0624_
*834 _0625_
*835 _0626_
*836 _0627_
*837 _0628_
*838 _0629_
*839 _0630_
*840 _0631_
*841 _0632_
*842 _0633_
*843 _0634_
*844 _0635_
*845 _0636_
*846 _0637_
*847 _0638_
*848 _0639_
*849 _0640_
*850 _0641_
*851 _0642_
*852 _0643_
*853 _0644_
*854 _0645_
*855 _0646_
*856 _0647_
*857 _0648_
*858 _0649_
*859 _0650_
*860 _0651_
*861 _0652_
*862 _0653_
*863 _0654_
*864 _0655_
*865 _0656_
*866 _0657_
*867 _0658_
*868 _0659_
*869 _0660_
*870 _0661_
*871 _0662_
*872 _0663_
*873 _0664_
*874 _0665_
*875 _0666_
*876 _0667_
*877 _0668_
*878 _0669_
*879 _0670_
*880 _0671_
*881 _0672_
*882 _0673_
*883 _0674_
*884 _0675_
*885 _0676_
*886 _0677_
*887 _0678_
*888 _0679_
*889 _0680_
*890 _0681_
*891 _0682_
*892 _0683_
*893 _0684_
*894 _0685_
*895 _0686_
*896 _0687_
*897 _0688_
*898 _0689_
*899 _0690_
*900 _0691_
*901 _0692_
*902 _0693_
*903 _0694_
*904 _0695_
*905 _0696_
*906 _0697_
*907 _0698_
*908 _0699_
*909 _0700_
*910 _0701_
*911 _0702_
*912 _0703_
*913 _0704_
*914 _0705_
*915 _0706_
*916 _0707_
*917 _0708_
*918 _0709_
*919 _0710_
*920 _0711_
*921 _0712_
*922 _0713_
*923 _0714_
*924 _0715_
*925 _0716_
*926 _0717_
*927 _0718_
*928 _0719_
*929 _0720_
*930 _0721_
*931 _0722_
*932 _0723_
*933 _0724_
*934 _0725_
*935 _0726_
*936 _0727_
*937 _0728_
*938 _0729_
*939 _0730_
*940 _0731_
*941 _0732_
*942 _0733_
*943 _0734_
*944 _0735_
*945 _0736_
*946 _0737_
*947 _0738_
*948 _0739_
*949 _0740_
*950 _0741_
*951 _0742_
*952 _0743_
*953 _0744_
*954 _0745_
*955 _0746_
*956 _0747_
*957 _0748_
*958 _0749_
*959 _0750_
*960 _0751_
*961 _0752_
*962 _0753_
*963 _0754_
*964 _0755_
*965 _0756_
*966 _0757_
*967 _0758_
*968 _0759_
*969 _0760_
*970 _0761_
*971 _0762_
*972 _0763_
*973 _0764_
*974 _0765_
*975 _0766_
*976 _0767_
*977 _0768_
*978 _0769_
*979 _0770_
*980 _0771_
*981 _0772_
*982 _0773_
*983 _0774_
*984 _0775_
*985 _0776_
*986 _0777_
*987 _0778_
*988 _0779_
*989 _0780_
*990 _0781_
*991 _0782_
*992 _0783_
*993 _0784_
*994 _0785_
*995 _0786_
*996 _0787_
*997 _0788_
*998 _0789_
*999 _0790_
*1000 _0791_
*1001 _0792_
*1002 _0793_
*1003 _0794_
*1004 _0795_
*1005 _0796_
*1006 _0797_
*1007 _0798_
*1008 _0799_
*1009 _0800_
*1010 _0801_
*1011 _0802_
*1012 _0803_
*1013 _0804_
*1014 _0805_
*1015 _0806_
*1016 _0807_
*1017 _0808_
*1018 _0809_
*1019 _0810_
*1020 _0811_
*1021 _0812_
*1022 _0813_
*1023 _0814_
*1024 _0815_
*1025 _0816_
*1026 _0817_
*1027 _0818_
*1028 _0819_
*1029 _0820_
*1030 _0821_
*1031 clknet_0_clk
*1032 clknet_3_0_0_clk
*1033 clknet_3_1_0_clk
*1034 clknet_3_2_0_clk
*1035 clknet_3_3_0_clk
*1036 clknet_3_4_0_clk
*1037 clknet_3_5_0_clk
*1038 clknet_3_6_0_clk
*1039 clknet_3_7_0_clk
*1040 clknet_4_0_0_clk
*1041 clknet_4_10_0_clk
*1042 clknet_4_11_0_clk
*1043 clknet_4_12_0_clk
*1044 clknet_4_13_0_clk
*1045 clknet_4_14_0_clk
*1046 clknet_4_15_0_clk
*1047 clknet_4_1_0_clk
*1048 clknet_4_2_0_clk
*1049 clknet_4_3_0_clk
*1050 clknet_4_4_0_clk
*1051 clknet_4_5_0_clk
*1052 clknet_4_6_0_clk
*1053 clknet_4_7_0_clk
*1054 clknet_4_8_0_clk
*1055 clknet_4_9_0_clk
*1056 net1
*1057 net10
*1058 net100
*1059 net101
*1060 net102
*1061 net103
*1062 net104
*1063 net105
*1064 net106
*1065 net107
*1066 net108
*1067 net109
*1068 net11
*1069 net110
*1070 net111
*1071 net112
*1072 net113
*1073 net114
*1074 net115
*1075 net116
*1076 net117
*1077 net118
*1078 net119
*1079 net12
*1080 net120
*1081 net121
*1082 net122
*1083 net123
*1084 net124
*1085 net125
*1086 net126
*1087 net127
*1088 net128
*1089 net129
*1090 net13
*1091 net130
*1092 net131
*1093 net132
*1094 net133
*1095 net134
*1096 net135
*1097 net136
*1098 net137
*1099 net138
*1100 net139
*1101 net14
*1102 net140
*1103 net141
*1104 net142
*1105 net143
*1106 net144
*1107 net145
*1108 net146
*1109 net147
*1110 net148
*1111 net149
*1112 net15
*1113 net150
*1114 net151
*1115 net152
*1116 net153
*1117 net154
*1118 net155
*1119 net156
*1120 net157
*1121 net158
*1122 net159
*1123 net16
*1124 net160
*1125 net161
*1126 net162
*1127 net163
*1128 net164
*1129 net165
*1130 net166
*1131 net167
*1132 net168
*1133 net169
*1134 net17
*1135 net170
*1136 net171
*1137 net172
*1138 net173
*1139 net174
*1140 net175
*1141 net176
*1142 net177
*1143 net178
*1144 net179
*1145 net18
*1146 net180
*1147 net181
*1148 net182
*1149 net183
*1150 net184
*1151 net185
*1152 net186
*1153 net187
*1154 net188
*1155 net189
*1156 net19
*1157 net190
*1158 net191
*1159 net192
*1160 net193
*1161 net194
*1162 net195
*1163 net196
*1164 net197
*1165 net198
*1166 net199
*1167 net2
*1168 net20
*1169 net200
*1170 net201
*1171 net202
*1172 net203
*1173 net204
*1174 net205
*1175 net21
*1176 net22
*1177 net23
*1178 net24
*1179 net25
*1180 net26
*1181 net27
*1182 net28
*1183 net29
*1184 net3
*1185 net30
*1186 net31
*1187 net32
*1188 net33
*1189 net34
*1190 net35
*1191 net36
*1192 net37
*1193 net38
*1194 net39
*1195 net4
*1196 net40
*1197 net41
*1198 net42
*1199 net43
*1200 net44
*1201 net45
*1202 net46
*1203 net47
*1204 net48
*1205 net49
*1206 net5
*1207 net50
*1208 net51
*1209 net52
*1210 net53
*1211 net54
*1212 net55
*1213 net56
*1214 net57
*1215 net58
*1216 net59
*1217 net6
*1218 net60
*1219 net61
*1220 net62
*1221 net63
*1222 net64
*1223 net65
*1224 net66
*1225 net67
*1226 net68
*1227 net69
*1228 net7
*1229 net70
*1230 net71
*1231 net72
*1232 net73
*1233 net74
*1234 net75
*1235 net76
*1236 net77
*1237 net78
*1238 net79
*1239 net8
*1240 net80
*1241 net81
*1242 net82
*1243 net83
*1244 net84
*1245 net85
*1246 net86
*1247 net87
*1248 net88
*1249 net89
*1250 net9
*1251 net90
*1252 net91
*1253 net92
*1254 net93
*1255 net94
*1256 net95
*1257 net96
*1258 net97
*1259 net98
*1260 net99
*1261 r_reg\[10\]
*1262 r_reg\[11\]
*1263 r_reg\[12\]
*1264 r_reg\[13\]
*1265 r_reg\[14\]
*1266 r_reg\[15\]
*1267 r_reg\[16\]
*1268 r_reg\[17\]
*1269 r_reg\[18\]
*1270 r_reg\[19\]
*1271 r_reg\[1\]
*1272 r_reg\[20\]
*1273 r_reg\[21\]
*1274 r_reg\[22\]
*1275 r_reg\[23\]
*1276 r_reg\[24\]
*1277 r_reg\[25\]
*1278 r_reg\[26\]
*1279 r_reg\[27\]
*1280 r_reg\[28\]
*1281 r_reg\[29\]
*1282 r_reg\[2\]
*1283 r_reg\[30\]
*1284 r_reg\[31\]
*1285 r_reg\[32\]
*1286 r_reg\[33\]
*1287 r_reg\[34\]
*1288 r_reg\[35\]
*1289 r_reg\[36\]
*1290 r_reg\[37\]
*1291 r_reg\[38\]
*1292 r_reg\[39\]
*1293 r_reg\[3\]
*1294 r_reg\[40\]
*1295 r_reg\[41\]
*1296 r_reg\[42\]
*1297 r_reg\[43\]
*1298 r_reg\[44\]
*1299 r_reg\[45\]
*1300 r_reg\[46\]
*1301 r_reg\[47\]
*1302 r_reg\[48\]
*1303 r_reg\[49\]
*1304 r_reg\[4\]
*1305 r_reg\[50\]
*1306 r_reg\[51\]
*1307 r_reg\[52\]
*1308 r_reg\[53\]
*1309 r_reg\[54\]
*1310 r_reg\[55\]
*1311 r_reg\[56\]
*1312 r_reg\[57\]
*1313 r_reg\[58\]
*1314 r_reg\[59\]
*1315 r_reg\[5\]
*1316 r_reg\[60\]
*1317 r_reg\[61\]
*1318 r_reg\[62\]
*1319 r_reg\[63\]
*1320 r_reg\[64\]
*1321 r_reg\[65\]
*1322 r_reg\[66\]
*1323 r_reg\[67\]
*1324 r_reg\[68\]
*1325 r_reg\[69\]
*1326 r_reg\[6\]
*1327 r_reg\[70\]
*1328 r_reg\[71\]
*1329 r_reg\[72\]
*1330 r_reg\[73\]
*1331 r_reg\[74\]
*1332 r_reg\[75\]
*1333 r_reg\[76\]
*1334 r_reg\[77\]
*1335 r_reg\[78\]
*1336 r_reg\[79\]
*1337 r_reg\[7\]
*1338 r_reg\[80\]
*1339 r_reg\[81\]
*1340 r_reg\[82\]
*1341 r_reg\[83\]
*1342 r_reg\[84\]
*1343 r_reg\[85\]
*1344 r_reg\[86\]
*1345 r_reg\[87\]
*1346 r_reg\[88\]
*1347 r_reg\[89\]
*1348 r_reg\[8\]
*1349 r_reg\[90\]
*1350 r_reg\[91\]
*1351 r_reg\[92\]
*1352 r_reg\[93\]
*1353 r_reg\[94\]
*1354 r_reg\[95\]
*1355 r_reg\[96\]
*1356 r_reg\[97\]
*1357 r_reg\[98\]
*1358 r_reg\[99\]
*1359 r_reg\[9\]
*1360 ANTENNA_0
*1361 ANTENNA_1
*1362 ANTENNA_10
*1363 ANTENNA_11
*1364 ANTENNA_12
*1365 ANTENNA_13
*1366 ANTENNA_14
*1367 ANTENNA_15
*1368 ANTENNA_16
*1369 ANTENNA_17
*1370 ANTENNA_18
*1371 ANTENNA_19
*1372 ANTENNA_2
*1373 ANTENNA_20
*1374 ANTENNA_21
*1375 ANTENNA_22
*1376 ANTENNA_23
*1377 ANTENNA_24
*1378 ANTENNA_25
*1379 ANTENNA_26
*1380 ANTENNA_27
*1381 ANTENNA_28
*1382 ANTENNA_3
*1383 ANTENNA_4
*1384 ANTENNA_5
*1385 ANTENNA_6
*1386 ANTENNA_7
*1387 ANTENNA_8
*1388 ANTENNA_9
*1389 FILLER_0_10
*1390 FILLER_0_105
*1391 FILLER_0_111
*1392 FILLER_0_117
*1393 FILLER_0_121
*1394 FILLER_0_132
*1395 FILLER_0_151
*1396 FILLER_0_159
*1397 FILLER_0_167
*1398 FILLER_0_169
*1399 FILLER_0_175
*1400 FILLER_0_182
*1401 FILLER_0_186
*1402 FILLER_0_192
*1403 FILLER_0_197
*1404 FILLER_0_205
*1405 FILLER_0_209
*1406 FILLER_0_220
*1407 FILLER_0_225
*1408 FILLER_0_230
*1409 FILLER_0_238
*1410 FILLER_0_24
*1411 FILLER_0_248
*1412 FILLER_0_253
*1413 FILLER_0_259
*1414 FILLER_0_265
*1415 FILLER_0_276
*1416 FILLER_0_281
*1417 FILLER_0_287
*1418 FILLER_0_29
*1419 FILLER_0_291
*1420 FILLER_0_294
*1421 FILLER_0_298
*1422 FILLER_0_3
*1423 FILLER_0_304
*1424 FILLER_0_309
*1425 FILLER_0_315
*1426 FILLER_0_319
*1427 FILLER_0_326
*1428 FILLER_0_37
*1429 FILLER_0_45
*1430 FILLER_0_53
*1431 FILLER_0_60
*1432 FILLER_0_76
*1433 FILLER_0_85
*1434 FILLER_0_93
*1435 FILLER_10_108
*1436 FILLER_10_11
*1437 FILLER_10_133
*1438 FILLER_10_139
*1439 FILLER_10_150
*1440 FILLER_10_158
*1441 FILLER_10_173
*1442 FILLER_10_181
*1443 FILLER_10_19
*1444 FILLER_10_192
*1445 FILLER_10_217
*1446 FILLER_10_225
*1447 FILLER_10_23
*1448 FILLER_10_235
*1449 FILLER_10_248
*1450 FILLER_10_257
*1451 FILLER_10_27
*1452 FILLER_10_272
*1453 FILLER_10_280
*1454 FILLER_10_29
*1455 FILLER_10_291
*1456 FILLER_10_3
*1457 FILLER_10_304
*1458 FILLER_10_318
*1459 FILLER_10_326
*1460 FILLER_10_38
*1461 FILLER_10_45
*1462 FILLER_10_52
*1463 FILLER_10_56
*1464 FILLER_10_60
*1465 FILLER_10_67
*1466 FILLER_10_80
*1467 FILLER_10_85
*1468 FILLER_11_100
*1469 FILLER_11_108
*1470 FILLER_11_122
*1471 FILLER_11_13
*1472 FILLER_11_135
*1473 FILLER_11_143
*1474 FILLER_11_164
*1475 FILLER_11_169
*1476 FILLER_11_17
*1477 FILLER_11_176
*1478 FILLER_11_203
*1479 FILLER_11_220
*1480 FILLER_11_225
*1481 FILLER_11_230
*1482 FILLER_11_243
*1483 FILLER_11_25
*1484 FILLER_11_267
*1485 FILLER_11_275
*1486 FILLER_11_279
*1487 FILLER_11_281
*1488 FILLER_11_285
*1489 FILLER_11_295
*1490 FILLER_11_30
*1491 FILLER_11_319
*1492 FILLER_11_326
*1493 FILLER_11_36
*1494 FILLER_11_40
*1495 FILLER_11_47
*1496 FILLER_11_55
*1497 FILLER_11_57
*1498 FILLER_11_61
*1499 FILLER_11_65
*1500 FILLER_11_7
*1501 FILLER_11_73
*1502 FILLER_11_85
*1503 FILLER_11_89
*1504 FILLER_12_108
*1505 FILLER_12_11
*1506 FILLER_12_114
*1507 FILLER_12_119
*1508 FILLER_12_132
*1509 FILLER_12_141
*1510 FILLER_12_152
*1511 FILLER_12_178
*1512 FILLER_12_182
*1513 FILLER_12_19
*1514 FILLER_12_192
*1515 FILLER_12_201
*1516 FILLER_12_205
*1517 FILLER_12_215
*1518 FILLER_12_219
*1519 FILLER_12_24
*1520 FILLER_12_240
*1521 FILLER_12_248
*1522 FILLER_12_253
*1523 FILLER_12_257
*1524 FILLER_12_278
*1525 FILLER_12_29
*1526 FILLER_12_3
*1527 FILLER_12_302
*1528 FILLER_12_312
*1529 FILLER_12_326
*1530 FILLER_12_33
*1531 FILLER_12_37
*1532 FILLER_12_44
*1533 FILLER_12_50
*1534 FILLER_12_54
*1535 FILLER_12_67
*1536 FILLER_12_80
*1537 FILLER_12_85
*1538 FILLER_13_108
*1539 FILLER_13_113
*1540 FILLER_13_126
*1541 FILLER_13_13
*1542 FILLER_13_134
*1543 FILLER_13_140
*1544 FILLER_13_161
*1545 FILLER_13_167
*1546 FILLER_13_169
*1547 FILLER_13_175
*1548 FILLER_13_20
*1549 FILLER_13_200
*1550 FILLER_13_215
*1551 FILLER_13_223
*1552 FILLER_13_225
*1553 FILLER_13_235
*1554 FILLER_13_262
*1555 FILLER_13_266
*1556 FILLER_13_27
*1557 FILLER_13_276
*1558 FILLER_13_290
*1559 FILLER_13_298
*1560 FILLER_13_326
*1561 FILLER_13_33
*1562 FILLER_13_37
*1563 FILLER_13_44
*1564 FILLER_13_52
*1565 FILLER_13_57
*1566 FILLER_13_6
*1567 FILLER_13_65
*1568 FILLER_13_89
*1569 FILLER_13_97
*1570 FILLER_14_107
*1571 FILLER_14_131
*1572 FILLER_14_139
*1573 FILLER_14_150
*1574 FILLER_14_167
*1575 FILLER_14_18
*1576 FILLER_14_180
*1577 FILLER_14_188
*1578 FILLER_14_197
*1579 FILLER_14_212
*1580 FILLER_14_216
*1581 FILLER_14_237
*1582 FILLER_14_243
*1583 FILLER_14_248
*1584 FILLER_14_253
*1585 FILLER_14_258
*1586 FILLER_14_26
*1587 FILLER_14_282
*1588 FILLER_14_29
*1589 FILLER_14_295
*1590 FILLER_14_303
*1591 FILLER_14_307
*1592 FILLER_14_318
*1593 FILLER_14_326
*1594 FILLER_14_36
*1595 FILLER_14_44
*1596 FILLER_14_68
*1597 FILLER_14_7
*1598 FILLER_14_80
*1599 FILLER_14_94
*1600 FILLER_15_108
*1601 FILLER_15_122
*1602 FILLER_15_135
*1603 FILLER_15_159
*1604 FILLER_15_167
*1605 FILLER_15_173
*1606 FILLER_15_18
*1607 FILLER_15_199
*1608 FILLER_15_207
*1609 FILLER_15_220
*1610 FILLER_15_225
*1611 FILLER_15_25
*1612 FILLER_15_252
*1613 FILLER_15_266
*1614 FILLER_15_274
*1615 FILLER_15_290
*1616 FILLER_15_294
*1617 FILLER_15_315
*1618 FILLER_15_32
*1619 FILLER_15_321
*1620 FILLER_15_326
*1621 FILLER_15_39
*1622 FILLER_15_52
*1623 FILLER_15_66
*1624 FILLER_15_7
*1625 FILLER_15_72
*1626 FILLER_15_93
*1627 FILLER_16_114
*1628 FILLER_16_127
*1629 FILLER_16_13
*1630 FILLER_16_135
*1631 FILLER_16_139
*1632 FILLER_16_141
*1633 FILLER_16_148
*1634 FILLER_16_17
*1635 FILLER_16_172
*1636 FILLER_16_185
*1637 FILLER_16_192
*1638 FILLER_16_206
*1639 FILLER_16_210
*1640 FILLER_16_234
*1641 FILLER_16_238
*1642 FILLER_16_24
*1643 FILLER_16_248
*1644 FILLER_16_257
*1645 FILLER_16_270
*1646 FILLER_16_29
*1647 FILLER_16_296
*1648 FILLER_16_304
*1649 FILLER_16_318
*1650 FILLER_16_326
*1651 FILLER_16_36
*1652 FILLER_16_60
*1653 FILLER_16_7
*1654 FILLER_16_73
*1655 FILLER_16_80
*1656 FILLER_16_85
*1657 FILLER_16_90
*1658 FILLER_17_108
*1659 FILLER_17_116
*1660 FILLER_17_143
*1661 FILLER_17_151
*1662 FILLER_17_164
*1663 FILLER_17_169
*1664 FILLER_17_179
*1665 FILLER_17_18
*1666 FILLER_17_187
*1667 FILLER_17_191
*1668 FILLER_17_215
*1669 FILLER_17_223
*1670 FILLER_17_234
*1671 FILLER_17_247
*1672 FILLER_17_25
*1673 FILLER_17_272
*1674 FILLER_17_281
*1675 FILLER_17_292
*1676 FILLER_17_300
*1677 FILLER_17_32
*1678 FILLER_17_326
*1679 FILLER_17_39
*1680 FILLER_17_52
*1681 FILLER_17_57
*1682 FILLER_17_64
*1683 FILLER_17_7
*1684 FILLER_17_77
*1685 FILLER_17_85
*1686 FILLER_17_95
*1687 FILLER_18_113
*1688 FILLER_18_117
*1689 FILLER_18_12
*1690 FILLER_18_128
*1691 FILLER_18_136
*1692 FILLER_18_161
*1693 FILLER_18_169
*1694 FILLER_18_17
*1695 FILLER_18_191
*1696 FILLER_18_195
*1697 FILLER_18_218
*1698 FILLER_18_231
*1699 FILLER_18_237
*1700 FILLER_18_24
*1701 FILLER_18_247
*1702 FILLER_18_251
*1703 FILLER_18_253
*1704 FILLER_18_266
*1705 FILLER_18_29
*1706 FILLER_18_293
*1707 FILLER_18_3
*1708 FILLER_18_301
*1709 FILLER_18_307
*1710 FILLER_18_313
*1711 FILLER_18_326
*1712 FILLER_18_33
*1713 FILLER_18_43
*1714 FILLER_18_56
*1715 FILLER_18_8
*1716 FILLER_18_80
*1717 FILLER_18_89
*1718 FILLER_19_10
*1719 FILLER_19_105
*1720 FILLER_19_111
*1721 FILLER_19_113
*1722 FILLER_19_121
*1723 FILLER_19_148
*1724 FILLER_19_161
*1725 FILLER_19_167
*1726 FILLER_19_17
*1727 FILLER_19_178
*1728 FILLER_19_191
*1729 FILLER_19_197
*1730 FILLER_19_207
*1731 FILLER_19_220
*1732 FILLER_19_225
*1733 FILLER_19_229
*1734 FILLER_19_24
*1735 FILLER_19_251
*1736 FILLER_19_264
*1737 FILLER_19_272
*1738 FILLER_19_290
*1739 FILLER_19_298
*1740 FILLER_19_3
*1741 FILLER_19_31
*1742 FILLER_19_326
*1743 FILLER_19_39
*1744 FILLER_19_52
*1745 FILLER_19_60
*1746 FILLER_19_73
*1747 FILLER_19_97
*1748 FILLER_1_108
*1749 FILLER_1_11
*1750 FILLER_1_113
*1751 FILLER_1_119
*1752 FILLER_1_125
*1753 FILLER_1_129
*1754 FILLER_1_136
*1755 FILLER_1_142
*1756 FILLER_1_153
*1757 FILLER_1_162
*1758 FILLER_1_173
*1759 FILLER_1_180
*1760 FILLER_1_187
*1761 FILLER_1_19
*1762 FILLER_1_194
*1763 FILLER_1_201
*1764 FILLER_1_208
*1765 FILLER_1_215
*1766 FILLER_1_223
*1767 FILLER_1_229
*1768 FILLER_1_236
*1769 FILLER_1_240
*1770 FILLER_1_245
*1771 FILLER_1_25
*1772 FILLER_1_252
*1773 FILLER_1_260
*1774 FILLER_1_266
*1775 FILLER_1_273
*1776 FILLER_1_279
*1777 FILLER_1_285
*1778 FILLER_1_29
*1779 FILLER_1_295
*1780 FILLER_1_3
*1781 FILLER_1_301
*1782 FILLER_1_308
*1783 FILLER_1_318
*1784 FILLER_1_326
*1785 FILLER_1_35
*1786 FILLER_1_51
*1787 FILLER_1_55
*1788 FILLER_1_60
*1789 FILLER_1_64
*1790 FILLER_1_69
*1791 FILLER_1_76
*1792 FILLER_1_84
*1793 FILLER_1_92
*1794 FILLER_1_97
*1795 FILLER_20_104
*1796 FILLER_20_128
*1797 FILLER_20_13
*1798 FILLER_20_136
*1799 FILLER_20_141
*1800 FILLER_20_145
*1801 FILLER_20_167
*1802 FILLER_20_17
*1803 FILLER_20_192
*1804 FILLER_20_218
*1805 FILLER_20_24
*1806 FILLER_20_242
*1807 FILLER_20_250
*1808 FILLER_20_262
*1809 FILLER_20_275
*1810 FILLER_20_288
*1811 FILLER_20_29
*1812 FILLER_20_301
*1813 FILLER_20_307
*1814 FILLER_20_309
*1815 FILLER_20_321
*1816 FILLER_20_329
*1817 FILLER_20_33
*1818 FILLER_20_57
*1819 FILLER_20_65
*1820 FILLER_20_7
*1821 FILLER_20_75
*1822 FILLER_20_83
*1823 FILLER_20_85
*1824 FILLER_20_91
*1825 FILLER_21_108
*1826 FILLER_21_113
*1827 FILLER_21_123
*1828 FILLER_21_13
*1829 FILLER_21_131
*1830 FILLER_21_148
*1831 FILLER_21_163
*1832 FILLER_21_167
*1833 FILLER_21_169
*1834 FILLER_21_177
*1835 FILLER_21_190
*1836 FILLER_21_204
*1837 FILLER_21_208
*1838 FILLER_21_218
*1839 FILLER_21_225
*1840 FILLER_21_238
*1841 FILLER_21_24
*1842 FILLER_21_252
*1843 FILLER_21_276
*1844 FILLER_21_301
*1845 FILLER_21_309
*1846 FILLER_21_324
*1847 FILLER_21_39
*1848 FILLER_21_52
*1849 FILLER_21_57
*1850 FILLER_21_79
*1851 FILLER_22_100
*1852 FILLER_22_110
*1853 FILLER_22_13
*1854 FILLER_22_134
*1855 FILLER_22_161
*1856 FILLER_22_169
*1857 FILLER_22_17
*1858 FILLER_22_192
*1859 FILLER_22_197
*1860 FILLER_22_205
*1861 FILLER_22_218
*1862 FILLER_22_24
*1863 FILLER_22_242
*1864 FILLER_22_250
*1865 FILLER_22_253
*1866 FILLER_22_266
*1867 FILLER_22_274
*1868 FILLER_22_278
*1869 FILLER_22_288
*1870 FILLER_22_29
*1871 FILLER_22_301
*1872 FILLER_22_307
*1873 FILLER_22_318
*1874 FILLER_22_326
*1875 FILLER_22_56
*1876 FILLER_22_7
*1877 FILLER_22_73
*1878 FILLER_22_80
*1879 FILLER_22_94
*1880 FILLER_23_106
*1881 FILLER_23_12
*1882 FILLER_23_122
*1883 FILLER_23_128
*1884 FILLER_23_152
*1885 FILLER_23_158
*1886 FILLER_23_163
*1887 FILLER_23_167
*1888 FILLER_23_169
*1889 FILLER_23_176
*1890 FILLER_23_19
*1891 FILLER_23_200
*1892 FILLER_23_208
*1893 FILLER_23_218
*1894 FILLER_23_225
*1895 FILLER_23_237
*1896 FILLER_23_241
*1897 FILLER_23_246
*1898 FILLER_23_259
*1899 FILLER_23_26
*1900 FILLER_23_272
*1901 FILLER_23_3
*1902 FILLER_23_301
*1903 FILLER_23_318
*1904 FILLER_23_326
*1905 FILLER_23_39
*1906 FILLER_23_52
*1907 FILLER_23_57
*1908 FILLER_23_79
*1909 FILLER_24_120
*1910 FILLER_24_13
*1911 FILLER_24_133
*1912 FILLER_24_139
*1913 FILLER_24_141
*1914 FILLER_24_146
*1915 FILLER_24_159
*1916 FILLER_24_17
*1917 FILLER_24_183
*1918 FILLER_24_191
*1919 FILLER_24_195
*1920 FILLER_24_197
*1921 FILLER_24_219
*1922 FILLER_24_24
*1923 FILLER_24_248
*1924 FILLER_24_273
*1925 FILLER_24_29
*1926 FILLER_24_297
*1927 FILLER_24_304
*1928 FILLER_24_313
*1929 FILLER_24_321
*1930 FILLER_24_326
*1931 FILLER_24_39
*1932 FILLER_24_63
*1933 FILLER_24_7
*1934 FILLER_24_80
*1935 FILLER_24_94
*1936 FILLER_25_108
*1937 FILLER_25_113
*1938 FILLER_25_117
*1939 FILLER_25_128
*1940 FILLER_25_13
*1941 FILLER_25_141
*1942 FILLER_25_149
*1943 FILLER_25_162
*1944 FILLER_25_169
*1945 FILLER_25_174
*1946 FILLER_25_198
*1947 FILLER_25_20
*1948 FILLER_25_206
*1949 FILLER_25_210
*1950 FILLER_25_220
*1951 FILLER_25_225
*1952 FILLER_25_233
*1953 FILLER_25_246
*1954 FILLER_25_259
*1955 FILLER_25_27
*1956 FILLER_25_272
*1957 FILLER_25_290
*1958 FILLER_25_298
*1959 FILLER_25_305
*1960 FILLER_25_313
*1961 FILLER_25_318
*1962 FILLER_25_326
*1963 FILLER_25_34
*1964 FILLER_25_47
*1965 FILLER_25_55
*1966 FILLER_25_6
*1967 FILLER_25_61