*SPEF "ieee 1481-1999"
*DESIGN "pin_dummy"
*DATE "11:11:11 Fri 11 11, 1111"
*VENDOR "OpenRCX"
*PROGRAM "Parallel Extraction"
*VERSION "1.0"
*DESIGN_FLOW "NAME_SCOPE LOCAL" "PIN_CAP NONE"
*DIVIDER /
*DELIMITER :
*BUS_DELIMITER []
*T_UNIT 1 NS
*C_UNIT 1 PF
*R_UNIT 1 OHM
*L_UNIT 1 HENRY

*NAME_MAP
*3 avdd
*4 avss
*5 clk
*6 cvdd
*7 cvss
*8 dvdd
*9 dvss
*10 load
*11 net1
*12 read
*13 ref
*14 s_in
*15 net2
*16 FILLER_0_15
*17 FILLER_0_27
*18 FILLER_0_29
*19 FILLER_0_3
*20 FILLER_0_41
*21 FILLER_0_53
*22 FILLER_1_15
*23 FILLER_1_27
*24 FILLER_1_3
*25 FILLER_1_39
*26 FILLER_1_47
*27 FILLER_1_52
*28 FILLER_2_15
*29 FILLER_2_27
*30 FILLER_2_29
*31 FILLER_2_3
*32 FILLER_2_41
*33 FILLER_2_53
*34 FILLER_3_15
*35 FILLER_3_27
*36 FILLER_3_3
*37 FILLER_3_39
*38 FILLER_3_51
*39 FILLER_3_55
*40 FILLER_4_15
*41 FILLER_4_27
*42 FILLER_4_29
*43 FILLER_4_3
*44 FILLER_4_41
*45 FILLER_4_53
*46 FILLER_5_15
*47 FILLER_5_27
*48 FILLER_5_3
*49 FILLER_5_39
*50 FILLER_5_51
*51 FILLER_5_55
*52 FILLER_6_15
*53 FILLER_6_27
*54 FILLER_6_29
*55 FILLER_6_3
*56 FILLER_6_41
*57 FILLER_6_53
*58 FILLER_7_15
*59 FILLER_7_27
*60 FILLER_7_3
*61 FILLER_7_39
*62 FILLER_7_51
*63 FILLER_7_55
*64 FILLER_8_15
*65 FILLER_8_27
*66 FILLER_8_29
*67 FILLER_8_3
*68 FILLER_8_41
*69 FILLER_8_53
*70 FILLER_9_15
*71 FILLER_9_27
*72 FILLER_9_29
*73 FILLER_9_3
*74 FILLER_9_41
*75 FILLER_9_52
*76 PHY_0
*77 PHY_1
*78 PHY_10
*79 PHY_11
*80 PHY_12
*81 PHY_13
*82 PHY_14
*83 PHY_15
*84 PHY_16
*85 PHY_17
*86 PHY_18
*87 PHY_19
*88 PHY_2
*89 PHY_3
*90 PHY_4
*91 PHY_5
*92 PHY_6
*93 PHY_7
*94 PHY_8
*95 PHY_9
*96 TAP_20
*97 TAP_21
*98 TAP_22
*99 TAP_23
*100 TAP_24
*101 TAP_25
*102 _0__1
*103 _1__2

*PORTS
avdd I
avss I
clk I
cvdd I
cvss I
dvdd I
dvss I
load I
out O
read I
ref I
s_in I
s_out O

*D_NET *11 0.000996459
*CONN
*P out O
*I *102:LO O *D sky130_fd_sc_hd__conb_1
*CAP
1 out 0.00049823
2 *102:LO 0.00049823
*RES
1 *102:LO out 23.5371 
*END

*D_NET *15 0.000762438
*CONN
*P s_out O
*I *103:LO O *D sky130_fd_sc_hd__conb_1
*CAP
1 s_out 0.000381219
2 *103:LO 0.000381219
*RES
1 *103:LO s_out 19.201 
*END
